
 ===================================================
  XFOIL Version 6.99
  Copyright (C) 2000   Mark Drela, Harold Youngren

  This software comes with ABSOLUTELY NO WARRANTY,
    subject to the GNU General Public License.

  Caveat computor
 ===================================================

 File  xfoil.def  not found

   QUIT    Exit program

  .OPER    Direct operating point(s)
  .MDES    Complex mapping design routine
  .QDES    Surface speed design routine
  .GDES    Geometry design routine

   SAVE f  Write airfoil to labeled coordinate file
   PSAV f  Write airfoil to plain coordinate file
   ISAV f  Write airfoil to ISES coordinate file
   MSAV f  Write airfoil to MSES coordinate file
   REVE    Reverse written-airfoil node ordering

   LOAD f  Read buffer airfoil from coordinate file
   NACA i  Set NACA 4,5-digit airfoil and buffer airfoil
   INTE    Set buffer airfoil by interpolating two airfoils
   NORM    Buffer airfoil normalization toggle
   XYCM rr Change CM reference location, currently  0.25000 0.00000

   BEND    Display structural properties of current airfoil

   PCOP    Set current-airfoil panel nodes directly from buffer airfoil points
   PANE    Set current-airfoil panel nodes ( 160 ) based on curvature
  .PPAR    Show/change paneling

  .PLOP    Plotting options

   WDEF f  Write  current-settings file
   RDEF f  Reread current-settings file
   NAME s  Specify new airfoil name
   NINC    Increment name version number

   Z       Zoom    | (available in all menus)
   U       Unzoom  | 

 XFOIL   c>   Max thickness =     0.120035  at x =   0.300
 Max camber    =     0.000000  at x =   0.013

 Buffer airfoil set using 331 points

 Blunt trailing edge.  Gap =  0.00252

 Paneling parameters used...
   Number of panel nodes       160
   Panel bunching parameter    1.000
   TE/LE panel density ratio   0.150
   Refined-area/LE panel density ratio    0.200
   Top    side refined area x/c limits  1.000 1.000
   Bottom side refined area x/c limits  1.000 1.000

 XFOIL   c>  
 Blunt trailing edge.  Gap =  0.00252

 Paneling parameters used...
   Number of panel nodes       160
   Panel bunching parameter    1.000
   TE/LE panel density ratio   0.150
   Refined-area/LE panel density ratio    0.200
   Top    side refined area x/c limits  1.000 1.000
   Bottom side refined area x/c limits  1.000 1.000

 XFOIL   c>  
    Present paneling parameters...
  N  i   Number of panel nodes       160
  P  r   Panel bunching parameter    1.000
  T  r   TE/LE panel density ratio   0.150
  R  r   Refined area/LE  panel density ratio   0.200
  XT rr  Top    side refined area x/c limits    1.000 1.000
  XB rr  Bottom side refined area x/c limits    1.000 1.000
  Z oom
  U nzoom

Change what ? (<cr> if nothing else)   c>  
Enter number of panel nodes   i>  
Change what ? (<cr> if nothing else)   c>  
 Blunt trailing edge.  Gap =  0.00252

 Maximum panel corner angle =  3.639   at  i,x,y  = 148   0.0002   0.0024

    Present paneling parameters...
  N  i   Number of panel nodes       300
  P  r   Panel bunching parameter    1.000
  T  r   TE/LE panel density ratio   0.150
  R  r   Refined area/LE  panel density ratio   0.200
  XT rr  Top    side refined area x/c limits    1.000 1.000
  XB rr  Bottom side refined area x/c limits    1.000 1.000
  Z oom
  U nzoom

Change what ? (<cr> if nothing else)   c>  
 XFOIL   c>  
.OPERi   c>   Current iteration limit:          10

Enter new iteration limit   i>  
.OPERi   c>  
 XFOIL   c>  
 XFOIL   c>  
 XFOIL   c>  
.OPERi   c>  
.OPERi   c>  
.OPERi   c>  
 M  =    0.0000
 Re =     60000

.OPERv   c>  
 Polar  1 newly created for accumulation
 Airfoil archived with polar: NACA 0012                                       

Enter  polar save filename  OR  <return> for no file   s>  
 Polar save file will NOT be written

Enter  polar dump filename  OR  <return> for no file   s>  
 Polar dump file will NOT be written

 Polar accumulation enabled

.OPERva   c>   Calculating unit vorticity distributions ...
 Calculating wake trajectory ...
 Array size (IWX) too small.  Last wake point index reduced.
 Calculating source influence matrix ...

 Solving BL system ...

 Initializing BL ...
    side            1  ...
 MRCHUE: Inverse mode at 105     Hk =   3.812
 MRCHUE: Inverse mode at 106     Hk =   3.923
 MRCHUE: Inverse mode at 107     Hk =   4.032
 MRCHUE: Inverse mode at 108     Hk =   4.141
 MRCHUE: Inverse mode at 109     Hk =   4.248
 MRCHUE: Inverse mode at 110     Hk =   4.355
 MRCHUE: Inverse mode at 111     Hk =   4.460
 MRCHUE: Inverse mode at 112     Hk =   4.565
 MRCHUE: Inverse mode at 113     Hk =   4.669
 MRCHUE: Inverse mode at 114     Hk =   4.772
 MRCHUE: Inverse mode at 115     Hk =   4.874
 MRCHUE: Inverse mode at 116     Hk =   4.976
 MRCHUE: Inverse mode at 117     Hk =   5.076
 MRCHUE: Inverse mode at 118     Hk =   5.176
 MRCHUE: Inverse mode at 119     Hk =   5.276
 MRCHUE: Inverse mode at 120     Hk =   5.374
 MRCHUE: Inverse mode at 121     Hk =   5.472
 MRCHUE: Inverse mode at 122     Hk =   5.570
 MRCHUE: Inverse mode at 123     Hk =   5.667
 MRCHUE: Inverse mode at 124     Hk =   5.763
 MRCHUE: Inverse mode at 125     Hk =   5.859
 MRCHUE: Inverse mode at 126     Hk =   5.954
 MRCHUE: Inverse mode at 127     Hk =   6.049
 MRCHUE: Inverse mode at 128     Hk =   6.143
 MRCHUE: Inverse mode at 129     Hk =   6.237
 MRCHUE: Inverse mode at 130     Hk =   6.330
 MRCHUE: Inverse mode at 131     Hk =   6.422
 MRCHUE: Inverse mode at 132     Hk =   6.515
 MRCHUE: Inverse mode at 133     Hk =   6.606
 MRCHUE: Inverse mode at 134     Hk =   6.698
 MRCHUE: Inverse mode at 135     Hk =   6.788
 MRCHUE: Inverse mode at 136     Hk =   6.878
 MRCHUE: Inverse mode at 137     Hk =   6.968
 MRCHUE: Inverse mode at 138     Hk =   7.057
 MRCHUE: Inverse mode at 139     Hk =   7.145
 MRCHUE: Inverse mode at 140     Hk =   7.232
 MRCHUE: Inverse mode at 141     Hk =   7.318
 MRCHUE: Inverse mode at 142     Hk =   7.402
 MRCHUE: Inverse mode at 143     Hk =   7.484
 MRCHUE: Inverse mode at 144     Hk =   7.563
 MRCHUE: Inverse mode at 145     Hk =   7.639
 MRCHUE: Inverse mode at 146     Hk =   7.711
 MRCHUE: Inverse mode at 147     Hk =   7.778
 MRCHUE: Inverse mode at 148     Hk =   7.840
 MRCHUE: Inverse mode at 149     Hk =   7.897
 MRCHUE: Inverse mode at 150     Hk =   7.949
 MRCHUE: Inverse mode at 151     Hk =   7.980
    side            2  ...
 MRCHUE: Inverse mode at 106     Hk =   3.867
 MRCHUE: Inverse mode at 107     Hk =   3.977
 MRCHUE: Inverse mode at 108     Hk =   4.085
 MRCHUE: Inverse mode at 109     Hk =   4.193
 MRCHUE: Inverse mode at 110     Hk =   4.299
 MRCHUE: Inverse mode at 111     Hk =   4.405
 MRCHUE: Inverse mode at 112     Hk =   4.510
 MRCHUE: Inverse mode at 113     Hk =   4.613
 MRCHUE: Inverse mode at 114     Hk =   4.716
 MRCHUE: Inverse mode at 115     Hk =   4.819
 MRCHUE: Inverse mode at 116     Hk =   4.920
 MRCHUE: Inverse mode at 117     Hk =   5.021
 MRCHUE: Inverse mode at 118     Hk =   5.121
 MRCHUE: Inverse mode at 119     Hk =   5.220
 MRCHUE: Inverse mode at 120     Hk =   5.318
 MRCHUE: Inverse mode at 121     Hk =   5.416
 MRCHUE: Inverse mode at 122     Hk =   5.514
 MRCHUE: Inverse mode at 123     Hk =   5.611
 MRCHUE: Inverse mode at 124     Hk =   5.707
 MRCHUE: Inverse mode at 125     Hk =   5.802
 MRCHUE: Inverse mode at 126     Hk =   5.898
 MRCHUE: Inverse mode at 127     Hk =   5.992
 MRCHUE: Inverse mode at 128     Hk =   6.086
 MRCHUE: Inverse mode at 129     Hk =   6.180
 MRCHUE: Inverse mode at 130     Hk =   6.273
 MRCHUE: Inverse mode at 131     Hk =   6.365
 MRCHUE: Inverse mode at 132     Hk =   6.457
 MRCHUE: Inverse mode at 133     Hk =   6.549
 MRCHUE: Inverse mode at 134     Hk =   6.640
 MRCHUE: Inverse mode at 135     Hk =   6.731
 MRCHUE: Inverse mode at 136     Hk =   6.821
 MRCHUE: Inverse mode at 137     Hk =   6.910
 MRCHUE: Inverse mode at 138     Hk =   6.999
 MRCHUE: Inverse mode at 139     Hk =   7.087
 MRCHUE: Inverse mode at 140     Hk =   7.174
 MRCHUE: Inverse mode at 141     Hk =   7.259
 MRCHUE: Inverse mode at 142     Hk =   7.344
 MRCHUE: Inverse mode at 143     Hk =   7.425
 MRCHUE: Inverse mode at 144     Hk =   7.505
 MRCHUE: Inverse mode at 145     Hk =   7.581
 MRCHUE: Inverse mode at 146     Hk =   7.652
 MRCHUE: Inverse mode at 147     Hk =   7.719
 MRCHUE: Inverse mode at 148     Hk =   7.781
 MRCHUE: Inverse mode at 149     Hk =   7.838
 MRCHUE: Inverse mode at 150     Hk =   7.889
 MRCHUE: Inverse mode at 151     Hk =   7.921
 MRCHUE: Inverse mode at 153     Hk =   5.993
 MRCHUE: Inverse mode at 154     Hk =   4.971
 MRCHUE: Inverse mode at 155     Hk =   4.339
 MRCHUE: Inverse mode at 156     Hk =   3.906
 MRCHUE: Inverse mode at 157     Hk =   3.588
 MRCHUE: Inverse mode at 158     Hk =   3.341
 MRCHUE: Inverse mode at 159     Hk =   3.142
 MRCHUE: Inverse mode at 160     Hk =   2.979

 Side 1 forced transition at x/c =  1.0000  151
 Side 2 forced transition at x/c =  1.0000  151

   1   rms: 0.3935E+00   max: 0.3672E+01   D at  161  2   RLX: 0.409
       a =  0.000      CL = -0.0001
      Cm = -0.0000     CD =  0.00840   =>   CDf =  0.00880    CDp = -0.00039

 Side 1 forced transition at x/c =  1.0000  151
 Side 2 forced transition at x/c =  1.0000  151

   2   rms: 0.1800E+00   max: 0.1302E+01   D at  164  2
       a =  0.000      CL =  0.0001
      Cm = -0.0000     CD =  0.01522   =>   CDf =  0.00899    CDp =  0.00623

 MRCHDU: Convergence failed at 162  side 2    Res =  0.3679E+02
 MRCHDU: Convergence failed at 163  side 2    Res =  0.1881E+01
 MRCHDU: Convergence failed at 164  side 2    Res =  0.3200E+01
 MRCHDU: Convergence failed at 165  side 2    Res =  0.1450E+02
 MRCHDU: Convergence failed at 166  side 2    Res =  0.6313E+01
 MRCHDU: Convergence failed at 167  side 2    Res =  0.2757E+01
 Side 1 forced transition at x/c =  1.0000  151
 Side 2 forced transition at x/c =  1.0000  151

   3   rms: 0.4756E-01   max: 0.3326E+00   T at  167  2
       a =  0.000      CL =  0.0002
      Cm = -0.0000     CD =  0.01878   =>   CDf =  0.00906    CDp =  0.00972

 Side 1 forced transition at x/c =  1.0000  151
 Side 2 forced transition at x/c =  1.0000  151

   4   rms: 0.1168E-01   max: -.1360E+00   D at  169  2
       a =  0.000      CL =  0.0000
      Cm = -0.0000     CD =  0.01962   =>   CDf =  0.00892    CDp =  0.01070

 Side 1 forced transition at x/c =  1.0000  151
 Side 2 forced transition at x/c =  1.0000  151

   5   rms: 0.6544E-03   max: -.1070E-01   D at  169  2
       a =  0.000      CL = -0.0000
      Cm =  0.0000     CD =  0.01958   =>   CDf =  0.00888    CDp =  0.01070

 Side 1 forced transition at x/c =  1.0000  151
 Side 2 forced transition at x/c =  1.0000  151

   6   rms: 0.5221E-05   max: -.5130E-04   D at  169  2
       a =  0.000      CL = -0.0000
      Cm =  0.0000     CD =  0.01958   =>   CDf =  0.00888    CDp =  0.01070
 plradd ia,ip,cpol            1         150  0.11816133    

 Point added to stored polar  1
 Save file unspecified or not available
 Dump file unspecified or not available

.OPERva   c>  
.OPERva   c>  
.OPERva   c>   Calculating wake trajectory ...
 Array size (IWX) too small.  Last wake point index reduced.
 Calculating source influence matrix ...

 Solving BL system ...

 Side 1 forced transition at x/c =  1.0000  151
 Side 2 forced transition at x/c =  1.0000  151

   1   rms: 0.1795E+00   max: -.7159E+00   D at  151  2   RLX: 0.698
       a =  1.000      CL = -0.0502
      Cm =  0.0153     CD =  0.01930   =>   CDf =  0.00888    CDp =  0.01042

 Side 1 forced transition at x/c =  1.0000  151
 Side 2 forced transition at x/c =  1.0000  151

   2   rms: 0.7215E-01   max: 0.2942E+00   D at  162  2
       a =  1.000      CL = -0.0382
      Cm =  0.0168     CD =  0.02061   =>   CDf =  0.00945    CDp =  0.01115

 Side 1  free  transition at x/c =  0.9986  152
 Side 2 forced transition at x/c =  1.0000  150

   3   rms: 0.3185E-01   max: 0.2096E+00   C at  150  2
       a =  1.000      CL = -0.0026
      Cm =  0.0100     CD =  0.02065   =>   CDf =  0.00908    CDp =  0.01157

 Side 1  free  transition at x/c =  0.9910  150
 Side 2 forced transition at x/c =  1.0000  150

   4   rms: 0.3256E-02   max: -.9144E-01   D at  151  1
       a =  1.000      CL = -0.0034
      Cm =  0.0103     CD =  0.02070   =>   CDf =  0.00896    CDp =  0.01174

 Side 1  free  transition at x/c =  0.9918  151
 Side 2 forced transition at x/c =  1.0000  150

   5   rms: 0.8052E-03   max: 0.6148E-02   D at  162  2
       a =  1.000      CL = -0.0034
      Cm =  0.0103     CD =  0.02070   =>   CDf =  0.00896    CDp =  0.01174

 Side 1  free  transition at x/c =  0.9917  151
 Side 2 forced transition at x/c =  1.0000  150

   6   rms: 0.1099E-04   max: -.8469E-04   D at  169  2
       a =  1.000      CL = -0.0034
      Cm =  0.0103     CD =  0.02070   =>   CDf =  0.00896    CDp =  0.01174
 plradd ia,ip,cpol            2         151  9.03207585E-02

 Point added to stored polar  1
 Save file unspecified or not available
 Dump file unspecified or not available

.OPERva   c>  
.OPERva   c>  
.OPERva   c>   Calculating wake trajectory ...
 Array size (IWX) too small.  Last wake point index reduced.
 Calculating source influence matrix ...

 Solving BL system ...

 Side 1  free  transition at x/c =  0.9917  151
 Side 2 forced transition at x/c =  1.0000  150

   1   rms: 0.3252E+00   max: 0.8556E+00   T at  161  2   RLX: 0.882
       a =  2.000      CL =  0.2844
      Cm = -0.0306     CD =  0.02380   =>   CDf =  0.00903    CDp =  0.01477

 MRCHDU: Convergence failed at 155  side 2    Res =  0.2802E+01
 MRCHDU: Convergence failed at 156  side 2    Res =  0.1369E+01
 MRCHDU: Convergence failed at 157  side 2    Res =  0.1389E+01
 Side 1  free  transition at x/c =  0.9261  147
 Side 2 forced transition at x/c =  1.0000  145

   2   rms: 0.6648E-01   max: 0.4913E+00   T at  147  1
       a =  2.000      CL =  0.3095
      Cm = -0.0297     CD =  0.02132   =>   CDf =  0.00865    CDp =  0.01266

 Side 1  free  transition at x/c =  0.8914  143
 Side 2 forced transition at x/c =  1.0000  145

   3   rms: 0.2203E-01   max: -.3109E+00   D at  146  1
       a =  2.000      CL =  0.3190
      Cm = -0.0305     CD =  0.02118   =>   CDf =  0.00841    CDp =  0.01277

 Side 1  free  transition at x/c =  0.8941  143
 Side 2 forced transition at x/c =  1.0000  145

   4   rms: 0.2095E-02   max: 0.1635E-01   D at  152  1
       a =  2.000      CL =  0.3176
      Cm = -0.0303     CD =  0.02124   =>   CDf =  0.00837    CDp =  0.01287

 Side 1  free  transition at x/c =  0.8940  143
 Side 2 forced transition at x/c =  1.0000  145

   5   rms: 0.4056E-04   max: 0.2243E-03   D at  150  2
       a =  2.000      CL =  0.3176
      Cm = -0.0303     CD =  0.02123   =>   CDf =  0.00838    CDp =  0.01286
 plradd ia,ip,cpol            3         156  2.88432632E-02

 Point added to stored polar  1
 Save file unspecified or not available
 Dump file unspecified or not available

.OPERva   c>  
.OPERva   c>  
.OPERva   c>   Calculating wake trajectory ...
 Array size (IWX) too small.  Last wake point index reduced.
 Calculating source influence matrix ...

 Solving BL system ...

 Side 1  free  transition at x/c =  0.8939  143
 Side 2 forced transition at x/c =  1.0000  145

   1   rms: 0.2886E+00   max: 0.1515E+01   T at  143  1   RLX: 0.842
       a =  3.000      CL =  0.5281
      Cm = -0.0487     CD =  0.01940   =>   CDf =  0.00824    CDp =  0.01116

 MRCHDU: Convergence failed at 147  side 1    Res =  0.5298E+01
 MRCHDU: Convergence failed at 148  side 1    Res =  0.2952E+01
 MRCHDU: Convergence failed at 149  side 1    Res =  0.2291E+01
 MRCHDU: Convergence failed at 150  side 1    Res =  0.3979E+01
 MRCHDU: Convergence failed at 151  side 1    Res =  0.9469E+01
 MRCHDU: Convergence failed at 152  side 1    Res =  0.1272E+04
 MRCHDU: Convergence failed at 153  side 1    Res =  0.1427E+02
 MRCHDU: Convergence failed at 154  side 1    Res =  0.9500E+01
 MRCHDU: Convergence failed at 155  side 1    Res =  0.8230E+01
 MRCHDU: Convergence failed at 156  side 1    Res =  0.7332E+01
 MRCHDU: Convergence failed at 157  side 1    Res =  0.6916E+01
 MRCHDU: Convergence failed at 158  side 1    Res =  0.6701E+01
 MRCHDU: Convergence failed at 159  side 1    Res =  0.6618E+01
 MRCHDU: Convergence failed at 160  side 1    Res =  0.6617E+01
 MRCHDU: Convergence failed at 161  side 1    Res =  0.6665E+01
 Side 1  free  transition at x/c =  0.7803  134
 Side 2 forced transition at x/c =  1.0000  141
 idif Ue xi dudx           1  0.14173415      2.25865841E-03   62.751476    
 Uenew xinew           2  6.49985746E-02  1.03580952E-03

   2   rms: 0.1515E+00   max: 0.5697E+00   D at  153  2
       a =  3.000      CL =  0.3981
      Cm = -0.0202     CD =  0.02147   =>   CDf =  0.00776    CDp =  0.01370

 Side 1  free  transition at x/c =  0.7700  132
 Side 2 forced transition at x/c =  1.0000  142

   3   rms: 0.7060E-01   max: 0.4193E+00   C at  142  2
       a =  3.000      CL =  0.4589
      Cm = -0.0297     CD =  0.01946   =>   CDf =  0.00843    CDp =  0.01104

 Side 1  free  transition at x/c =  0.7625  131
 Side 2 forced transition at x/c =  1.0000  142

   4   rms: 0.9328E-02   max: 0.4981E-01   D at  128  2
       a =  3.000      CL =  0.4629
      Cm = -0.0300     CD =  0.01976   =>   CDf =  0.00820    CDp =  0.01156

 Side 1  free  transition at x/c =  0.7618  131
 Side 2 forced transition at x/c =  1.0000  142

   5   rms: 0.6294E-03   max: 0.2789E-02   D at  125  2
       a =  3.000      CL =  0.4633
      Cm = -0.0300     CD =  0.01980   =>   CDf =  0.00816    CDp =  0.01164

 Side 1  free  transition at x/c =  0.7618  131
 Side 2 forced transition at x/c =  1.0000  142

   6   rms: 0.2001E-04   max: -.1028E-03   D at  145  2
       a =  3.000      CL =  0.4633
      Cm = -0.0300     CD =  0.01980   =>   CDf =  0.00815    CDp =  0.01165
 plradd ia,ip,cpol            4         159  1.64574627E-02

 Point added to stored polar  1
 Save file unspecified or not available
 Dump file unspecified or not available

.OPERva   c>  
.OPERva   c>  
.OPERva   c>   Calculating wake trajectory ...
 Array size (IWX) too small.  Last wake point index reduced.
 Calculating source influence matrix ...

 Solving BL system ...

 Side 1  free  transition at x/c =  0.7618  131
 Side 2 forced transition at x/c =  1.0000  142

   1   rms: 0.1843E+00   max: 0.1533E+01   T at  131  1   RLX: 0.979
       a =  4.000      CL =  0.5283
      Cm = -0.0188     CD =  0.02018   =>   CDf =  0.00805    CDp =  0.01212

 MRCHDU: Convergence failed at 133  side 1    Res =  0.8968E+00
 MRCHDU: Convergence failed at 134  side 1    Res =  0.1707E+01
 MRCHDU: Convergence failed at 135  side 1    Res =  0.5263E+01
 MRCHDU: Convergence failed at 136  side 1    Res =  0.9236E+01
 MRCHDU: Convergence failed at 137  side 1    Res =  0.3691E+01
 MRCHDU: Convergence failed at 138  side 1    Res =  0.2709E+01
 MRCHDU: Convergence failed at 140  side 1    Res =  0.1606E+01
 MRCHDU: Convergence failed at 141  side 1    Res =  0.1537E+01
 MRCHDU: Convergence failed at 142  side 1    Res =  0.1496E+01
 MRCHDU: Convergence failed at 143  side 1    Res =  0.1483E+01
 MRCHDU: Convergence failed at 144  side 1    Res =  0.1486E+01
 MRCHDU: Convergence failed at 145  side 1    Res =  0.1523E+01
 MRCHDU: Convergence failed at 146  side 1    Res =  0.2055E+01
 MRCHDU: Convergence failed at 147  side 1    Res =  0.2117E+01
 MRCHDU: Convergence failed at 148  side 1    Res =  0.2316E+01
 MRCHDU: Convergence failed at 149  side 1    Res =  0.2562E+01
 MRCHDU: Convergence failed at 150  side 1    Res =  0.2831E+01
 MRCHDU: Convergence failed at 151  side 1    Res =  0.3152E+01
 MRCHDU: Convergence failed at 152  side 1    Res =  0.3700E+01
 MRCHDU: Convergence failed at 153  side 1    Res =  0.4115E+01
 MRCHDU: Convergence failed at 154  side 1    Res =  0.4631E+01
 MRCHDU: Convergence failed at 155  side 1    Res =  0.5449E+01
 MRCHDU: Convergence failed at 156  side 1    Res =  0.6571E+01
 MRCHDU: Convergence failed at 157  side 1    Res =  0.8302E+01
 MRCHDU: Convergence failed at 158  side 1    Res =  0.1099E+02
 MRCHDU: Convergence failed at 159  side 1    Res =  0.2192E+02
 MRCHDU: Convergence failed at 160  side 1    Res =  0.4572E+02
 MRCHDU: Convergence failed at 161  side 1    Res =  0.2539E+04
 MRCHDU: Convergence failed at 162  side 1    Res =  0.5079E+02
 Side 1  free  transition at x/c =  0.6323  119
 Side 2 forced transition at x/c =  1.0000  140

   2   rms: 0.1325E+00   max: -.6512E+00   D at  143  1   RLX: 0.768
       a =  4.000      CL =  0.5028
      Cm = -0.0131     CD =  0.02015   =>   CDf =  0.00785    CDp =  0.01230

 Side 1  free  transition at x/c =  0.6391  119
 Side 2 forced transition at x/c =  1.0000  140

   3   rms: 0.7884E-01   max: -.4688E+00   C at  119  1
       a =  4.000      CL =  0.5441
      Cm = -0.0203     CD =  0.01971   =>   CDf =  0.00839    CDp =  0.01133

 Side 1  free  transition at x/c =  0.6013  116
 Side 2 forced transition at x/c =  1.0000  139

   4   rms: 0.3581E-01   max: -.3353E+00   D at  119  1
       a =  4.000      CL =  0.5432
      Cm = -0.0183     CD =  0.01991   =>   CDf =  0.00857    CDp =  0.01133

 Side 1  free  transition at x/c =  0.6159  118
 Side 2 forced transition at x/c =  1.0000  139

   5   rms: 0.6990E-02   max: 0.7592E-01   D at  121  1
       a =  4.000      CL =  0.5434
      Cm = -0.0185     CD =  0.01999   =>   CDf =  0.00854    CDp =  0.01145

 Side 1  free  transition at x/c =  0.6135  117
 Side 2 forced transition at x/c =  1.0000  139

   6   rms: 0.1829E-02   max: 0.1601E-01   D at  121  1
       a =  4.000      CL =  0.5428
      Cm = -0.0185     CD =  0.02001   =>   CDf =  0.00853    CDp =  0.01148

 Side 1  free  transition at x/c =  0.6127  117
 Side 2 forced transition at x/c =  1.0000  139

   7   rms: 0.9917E-04   max: -.7682E-03   T at  117  1
       a =  4.000      CL =  0.5428
      Cm = -0.0185     CD =  0.02000   =>   CDf =  0.00853    CDp =  0.01148
 plradd ia,ip,cpol            5         162  1.19359903E-02

 Point added to stored polar  1
 Save file unspecified or not available
 Dump file unspecified or not available

.OPERva   c>  
.OPERva   c>  
.OPERva   c>   Calculating wake trajectory ...
 Array size (IWX) too small.  Last wake point index reduced.
 Calculating source influence matrix ...

 Solving BL system ...

 Side 1  free  transition at x/c =  0.6127  117
 Side 2 forced transition at x/c =  1.0000  139

   1   rms: 0.2194E+00   max: 0.2095E+01   T at  117  1   RLX: 0.474
       a =  5.000      CL =  0.5666
      Cm = -0.0143     CD =  0.02142   =>   CDf =  0.00854    CDp =  0.01288

 Side 1  free  transition at x/c =  0.5290  108
 Side 2 forced transition at x/c =  1.0000  139

   2   rms: 0.1642E+00   max: 0.1023E+01   T at  108  1   RLX: 0.694
       a =  5.000      CL =  0.5999
      Cm = -0.0092     CD =  0.02084   =>   CDf =  0.00859    CDp =  0.01225

 Side 1  free  transition at x/c =  0.4808  103
 Side 2 forced transition at x/c =  1.0000  138

   3   rms: 0.8928E-01   max: -.6159E+00   C at  103  1   RLX: 0.812
       a =  5.000      CL =  0.6100
      Cm = -0.0083     CD =  0.02118   =>   CDf =  0.00873    CDp =  0.01245

 Side 1  free  transition at x/c =  0.4464  101
 Side 2 forced transition at x/c =  1.0000  137

   4   rms: 0.5562E-01   max: -.4375E+00   D at  109  1
       a =  5.000      CL =  0.6162
      Cm = -0.0082     CD =  0.02127   =>   CDf =  0.00916    CDp =  0.01211

 Side 1  free  transition at x/c =  0.4477  101
 Side 2 forced transition at x/c =  1.0000  137

   5   rms: 0.7478E-02   max: -.1001E+00   D at  109  1
       a =  5.000      CL =  0.6176
      Cm = -0.0085     CD =  0.02156   =>   CDf =  0.00920    CDp =  0.01236

 Side 1  free  transition at x/c =  0.4447  100
 Side 2 forced transition at x/c =  1.0000  137

   6   rms: 0.1576E-02   max: -.1215E-01   C at  100  1
       a =  5.000      CL =  0.6175
      Cm = -0.0085     CD =  0.02159   =>   CDf =  0.00927    CDp =  0.01232

 Side 1  free  transition at x/c =  0.4437  100
 Side 2 forced transition at x/c =  1.0000  137

   7   rms: 0.2139E-03   max: -.1815E-02   D at  104  1
       a =  5.000      CL =  0.6175
      Cm = -0.0085     CD =  0.02158   =>   CDf =  0.00925    CDp =  0.01233

 Side 1  free  transition at x/c =  0.4438  100
 Side 2 forced transition at x/c =  1.0000  137

   8   rms: 0.8232E-05   max: 0.4598E-04   T at  100  1
       a =  5.000      CL =  0.6175
      Cm = -0.0085     CD =  0.02158   =>   CDf =  0.00925    CDp =  0.01233
 plradd ia,ip,cpol            6         164  9.39526595E-03

 Point added to stored polar  1
 Save file unspecified or not available
 Dump file unspecified or not available

.OPERva   c>  
.OPERva   c>  
.OPERva   c>   Calculating wake trajectory ...
 Array size (IWX) too small.  Last wake point index reduced.
 Calculating source influence matrix ...

 Solving BL system ...

 Side 1  free  transition at x/c =  0.4438  100
 Side 2 forced transition at x/c =  1.0000  137

   1   rms: 0.2363E+00   max: 0.2451E+01   T at  100  1   RLX: 0.612
       a =  6.000      CL =  0.6539
      Cm = -0.0031     CD =  0.02361   =>   CDf =  0.00919    CDp =  0.01441

 MRCHDU: Convergence failed at 101  side 1    Res =  0.5234E+01
 MRCHDU: Convergence failed at 102  side 1    Res =  0.4263E+02
 MRCHDU: Convergence failed at 103  side 1    Res =  0.1877E+02
 MRCHDU: Convergence failed at 104  side 1    Res =  0.8773E+01
 MRCHDU: Convergence failed at 105  side 1    Res =  0.6904E+01
 MRCHDU: Convergence failed at 106  side 1    Res =  0.6247E+01
 MRCHDU: Convergence failed at 107  side 1    Res =  0.6254E+01
 MRCHDU: Convergence failed at 108  side 1    Res =  0.6806E+01
 MRCHDU: Convergence failed at 109  side 1    Res =  0.8311E+01
 MRCHDU: Convergence failed at 110  side 1    Res =  0.1785E+02
 MRCHDU: Convergence failed at 111  side 1    Res =  0.3616E+02
 MRCHDU: Convergence failed at 112  side 1    Res =  0.1447E+03
 MRCHDU: Convergence failed at 113  side 1    Res =  0.1896E+03
 MRCHDU: Convergence failed at 114  side 1    Res =  0.1021E+03
 MRCHDU: Convergence failed at 115  side 1    Res =  0.1565E+03
 MRCHDU: Convergence failed at 116  side 1    Res =  0.7867E+03
 MRCHDU: Convergence failed at 117  side 1    Res =  0.1353E+03
 MRCHDU: Convergence failed at 118  side 1    Res =  0.6342E+02
 MRCHDU: Convergence failed at 119  side 1    Res =  0.4273E+02
 MRCHDU: Convergence failed at 120  side 1    Res =  0.3222E+02
 MRCHDU: Convergence failed at 121  side 1    Res =  0.2672E+02
 MRCHDU: Convergence failed at 122  side 1    Res =  0.2298E+02
 MRCHDU: Convergence failed at 123  side 1    Res =  0.2088E+02
 MRCHDU: Convergence failed at 124  side 1    Res =  0.1932E+02
 MRCHDU: Convergence failed at 125  side 1    Res =  0.1828E+02
 MRCHDU: Convergence failed at 126  side 1    Res =  0.1786E+02
 MRCHDU: Convergence failed at 127  side 1    Res =  0.1784E+02
 MRCHDU: Convergence failed at 128  side 1    Res =  0.1795E+02
 MRCHDU: Convergence failed at 129  side 1    Res =  0.1831E+02
 MRCHDU: Convergence failed at 130  side 1    Res =  0.1889E+02
 MRCHDU: Convergence failed at 131  side 1    Res =  0.1966E+02
 MRCHDU: Convergence failed at 132  side 1    Res =  0.2033E+02
 MRCHDU: Convergence failed at 133  side 1    Res =  0.2165E+02
 MRCHDU: Convergence failed at 134  side 1    Res =  0.2330E+02
 MRCHDU: Convergence failed at 135  side 1    Res =  0.2551E+02
 MRCHDU: Convergence failed at 136  side 1    Res =  0.2827E+02
 MRCHDU: Convergence failed at 137  side 1    Res =  0.3199E+02
 MRCHDU: Convergence failed at 138  side 1    Res =  0.3713E+02
 MRCHDU: Convergence failed at 139  side 1    Res =  0.4446E+02
 MRCHDU: Convergence failed at 140  side 1    Res =  0.5602E+02
 MRCHDU: Convergence failed at 141  side 1    Res =  0.1041E+03
 MRCHDU: Convergence failed at 142  side 1    Res =  0.1739E+03
 MRCHDU: Convergence failed at 143  side 1    Res =  0.4577E+03
 MRCHDU: Convergence failed at 144  side 1    Res =  0.8302E+02
 MRCHDU: Convergence failed at 145  side 1    Res =  0.5756E+02
 MRCHDU: Convergence failed at 146  side 1    Res =  0.4405E+02
 MRCHDU: Convergence failed at 147  side 1    Res =  0.3513E+02
 MRCHDU: Convergence failed at 148  side 1    Res =  0.2903E+02
 MRCHDU: Convergence failed at 149  side 1    Res =  0.2465E+02
 MRCHDU: Convergence failed at 150  side 1    Res =  0.2012E+02
 MRCHDU: Convergence failed at 151  side 1    Res =  0.1774E+02
 MRCHDU: Convergence failed at 152  side 1    Res =  0.1489E+02
 MRCHDU: Convergence failed at 153  side 1    Res =  0.1306E+02
 MRCHDU: Convergence failed at 154  side 1    Res =  0.1191E+02
 MRCHDU: Convergence failed at 155  side 1    Res =  0.1093E+02
 MRCHDU: Convergence failed at 156  side 1    Res =  0.1007E+02
 MRCHDU: Convergence failed at 157  side 1    Res =  0.9318E+01
 MRCHDU: Convergence failed at 158  side 1    Res =  0.8413E+01
 MRCHDU: Convergence failed at 159  side 1    Res =  0.7504E+01
 MRCHDU: Convergence failed at 160  side 1    Res =  0.7918E+01
 MRCHDU: Convergence failed at 161  side 1    Res =  0.8364E+01
 MRCHDU: Convergence failed at 162  side 1    Res =  0.8830E+01
 MRCHDU: Convergence failed at 163  side 1    Res =  0.9406E+01
 MRCHDU: Convergence failed at 164  side 1    Res =  0.1001E+02
 MRCHDU: Convergence failed at 165  side 1    Res =  0.1062E+02
 MRCHDU: Convergence failed at 166  side 1    Res =  0.1085E+02
 Side 1  free  transition at x/c =  0.3515   91
 Side 2 forced transition at x/c =  1.0000  136
 idif Ue xi dudx           1  8.61939415E-02  2.01356411E-03   42.806652    
 Uenew xinew           2  2.38920152E-02  5.58137894E-04

   2   rms: 0.4336E+00   max: -.2246E+01   C at  136  2   RLX: 0.223
       a =  6.000      CL =  0.7327
      Cm = -0.0746     CD =  0.02029   =>   CDf =  0.00680    CDp =  0.01348

 Side 1  free  transition at x/c =  0.3675   92
 Side 2 forced transition at x/c =  1.0000  137

   3   rms: 0.2885E+00   max: 0.1489E+01   T at   92  1   RLX: 0.483
       a =  6.000      CL =  0.7160
      Cm = -0.0344     CD =  0.01980   =>   CDf =  0.01051    CDp =  0.00929

 Side 1  free  transition at x/c =  0.3344   89
 Side 2 forced transition at x/c =  1.0000  136

   4   rms: 0.2145E+00   max: -.1106E+01   D at  108  1   RLX: 0.452
       a =  6.000      CL =  0.7090
      Cm = -0.0176     CD =  0.02059   =>   CDf =  0.00982    CDp =  0.01077

 Side 1  free  transition at x/c =  0.3203   88
 Side 2 forced transition at x/c =  1.0000  135

   5   rms: 0.1200E+00   max: 0.7021E+00   T at   88  1   RLX: 0.928
       a =  6.000      CL =  0.6994
      Cm = -0.0019     CD =  0.02277   =>   CDf =  0.00984    CDp =  0.01293

 Side 1  free  transition at x/c =  0.2852   84
 Side 2 forced transition at x/c =  1.0000  135

   6   rms: 0.4653E-01   max: -.4035E+00   D at   87  1
       a =  6.000      CL =  0.6895
      Cm = -0.0001     CD =  0.02490   =>   CDf =  0.00997    CDp =  0.01493

 Side 1  free  transition at x/c =  0.2861   84
 Side 2 forced transition at x/c =  1.0000  135

   7   rms: 0.2394E-02   max: -.5019E-01   D at   93  1
       a =  6.000      CL =  0.6896
      Cm = -0.0001     CD =  0.02493   =>   CDf =  0.01012    CDp =  0.01481

 Side 1  free  transition at x/c =  0.2859   84
 Side 2 forced transition at x/c =  1.0000  135

   8   rms: 0.8475E-04   max: -.2084E-02   D at   93  1
       a =  6.000      CL =  0.6897
      Cm = -0.0002     CD =  0.02493   =>   CDf =  0.01013    CDp =  0.01481
 plradd ia,ip,cpol            7         166  7.18943868E-03

 Point added to stored polar  1
 Save file unspecified or not available
 Dump file unspecified or not available

.OPERva   c>  
.OPERva   c>  
.OPERva   c>   Calculating wake trajectory ...
 Array size (IWX) too small.  Last wake point index reduced.
 Calculating source influence matrix ...

 Solving BL system ...

 Side 1  free  transition at x/c =  0.2858   84
 Side 2 forced transition at x/c =  1.0000  135

   1   rms: 0.2303E+00   max: 0.2535E+01   T at   84  1   RLX: 0.592
       a =  7.000      CL =  0.7339
      Cm =  0.0042     CD =  0.02769   =>   CDf =  0.01007    CDp =  0.01762

 MRCHDU: Convergence failed at  85  side 1    Res =  0.6510E+01
 MRCHDU: Convergence failed at  86  side 1    Res =  0.1285E+02
 MRCHDU: Convergence failed at  87  side 1    Res =  0.5785E+02
 MRCHDU: Convergence failed at  88  side 1    Res =  0.1459E+02
 MRCHDU: Convergence failed at  89  side 1    Res =  0.9674E+01
 MRCHDU: Convergence failed at  90  side 1    Res =  0.8141E+01
 MRCHDU: Convergence failed at  91  side 1    Res =  0.7461E+01
 MRCHDU: Convergence failed at  92  side 1    Res =  0.7291E+01
 MRCHDU: Convergence failed at  93  side 1    Res =  0.7515E+01
 MRCHDU: Convergence failed at  94  side 1    Res =  0.7991E+01
 MRCHDU: Convergence failed at  95  side 1    Res =  0.8691E+01
 MRCHDU: Convergence failed at  96  side 1    Res =  0.9871E+01
 MRCHDU: Convergence failed at  97  side 1    Res =  0.1074E+02
 MRCHDU: Convergence failed at  98  side 1    Res =  0.1164E+02
 MRCHDU: Convergence failed at  99  side 1    Res =  0.1237E+02
 MRCHDU: Convergence failed at 100  side 1    Res =  0.1335E+02
 MRCHDU: Convergence failed at 101  side 1    Res =  0.1426E+02
 MRCHDU: Convergence failed at 102  side 1    Res =  0.1553E+02
 MRCHDU: Convergence failed at 103  side 1    Res =  0.1652E+02
 MRCHDU: Convergence failed at 104  side 1    Res =  0.1698E+02
 MRCHDU: Convergence failed at 105  side 1    Res =  0.1784E+02
 MRCHDU: Convergence failed at 106  side 1    Res =  0.1893E+02
 MRCHDU: Convergence failed at 107  side 1    Res =  0.2019E+02
 MRCHDU: Convergence failed at 108  side 1    Res =  0.2228E+02
 MRCHDU: Convergence failed at 109  side 1    Res =  0.2390E+02
 MRCHDU: Convergence failed at 110  side 1    Res =  0.2675E+02
 MRCHDU: Convergence failed at 111  side 1    Res =  0.3224E+02
 MRCHDU: Convergence failed at 112  side 1    Res =  0.3568E+02
 MRCHDU: Convergence failed at 113  side 1    Res =  0.3976E+02
 MRCHDU: Convergence failed at 114  side 1    Res =  0.4514E+02
 MRCHDU: Convergence failed at 115  side 1    Res =  0.5078E+02
 MRCHDU: Convergence failed at 116  side 1    Res =  0.5994E+02
 MRCHDU: Convergence failed at 117  side 1    Res =  0.7395E+02
 MRCHDU: Convergence failed at 118  side 1    Res =  0.9587E+02
 MRCHDU: Convergence failed at 119  side 1    Res =  0.1352E+03
 MRCHDU: Convergence failed at 120  side 1    Res =  0.2359E+03
 MRCHDU: Convergence failed at 121  side 1    Res =  0.8640E+03
 MRCHDU: Convergence failed at 122  side 1    Res =  0.5278E+03
 MRCHDU: Convergence failed at 123  side 1    Res =  0.2027E+03
 MRCHDU: Convergence failed at 124  side 1    Res =  0.1259E+03
 MRCHDU: Convergence failed at 125  side 1    Res =  0.8672E+02
 MRCHDU: Convergence failed at 126  side 1    Res =  0.6965E+02
 MRCHDU: Convergence failed at 127  side 1    Res =  0.6321E+02
 MRCHDU: Convergence failed at 128  side 1    Res =  0.5421E+02
 MRCHDU: Convergence failed at 129  side 1    Res =  0.4707E+02
 MRCHDU: Convergence failed at 130  side 1    Res =  0.4173E+02
 MRCHDU: Convergence failed at 131  side 1    Res =  0.3726E+02
 MRCHDU: Convergence failed at 132  side 1    Res =  0.3362E+02
 MRCHDU: Convergence failed at 133  side 1    Res =  0.3060E+02
 MRCHDU: Convergence failed at 134  side 1    Res =  0.2814E+02
 MRCHDU: Convergence failed at 135  side 1    Res =  0.2601E+02
 MRCHDU: Convergence failed at 136  side 1    Res =  0.2415E+02
 MRCHDU: Convergence failed at 137  side 1    Res =  0.2236E+02
 MRCHDU: Convergence failed at 138  side 1    Res =  0.2123E+02
 MRCHDU: Convergence failed at 139  side 1    Res =  0.1994E+02
 MRCHDU: Convergence failed at 140  side 1    Res =  0.1878E+02
 MRCHDU: Convergence failed at 141  side 1    Res =  0.1773E+02
 MRCHDU: Convergence failed at 142  side 1    Res =  0.1677E+02
 MRCHDU: Convergence failed at 143  side 1    Res =  0.1592E+02
 MRCHDU: Convergence failed at 144  side 1    Res =  0.1511E+02
 MRCHDU: Convergence failed at 145  side 1    Res =  0.1438E+02
 MRCHDU: Convergence failed at 146  side 1    Res =  0.1370E+02
 MRCHDU: Convergence failed at 147  side 1    Res =  0.1298E+02
 MRCHDU: Convergence failed at 148  side 1    Res =  0.1237E+02
 MRCHDU: Convergence failed at 149  side 1    Res =  0.1385E+02
 MRCHDU: Convergence failed at 150  side 1    Res =  0.1416E+02
 MRCHDU: Convergence failed at 151  side 1    Res =  0.1447E+02
 MRCHDU: Convergence failed at 152  side 1    Res =  0.1250E+02
 MRCHDU: Convergence failed at 153  side 1    Res =  0.1314E+02
 MRCHDU: Convergence failed at 154  side 1    Res =  0.1385E+02
 MRCHDU: Convergence failed at 155  side 1    Res =  0.1579E+02
 MRCHDU: Convergence failed at 156  side 1    Res =  0.1623E+02
 MRCHDU: Convergence failed at 157  side 1    Res =  0.2265E+02
 MRCHDU: Convergence failed at 158  side 1    Res =  0.1633E+02
 MRCHDU: Convergence failed at 159  side 1    Res =  0.2666E+02
 MRCHDU: Convergence failed at 160  side 1    Res =  0.2238E+02
 MRCHDU: Convergence failed at 161  side 1    Res =  0.2263E+02
 MRCHDU: Convergence failed at 162  side 1    Res =  0.2727E+02
 MRCHDU: Convergence failed at 163  side 1    Res =  0.3109E+02
 MRCHDU: Convergence failed at 164  side 1    Res =  0.2636E+02
 MRCHDU: Convergence failed at 165  side 1    Res =  0.4229E+02
 MRCHDU: Convergence failed at 166  side 1    Res =  0.2853E+02
 MRCHDU: Convergence failed at 167  side 1    Res =  0.2813E+02
 MRCHDU: Convergence failed at 168  side 1    Res =  0.1545E+02
 Side 1  free  transition at x/c =  0.2304   79
 Side 2 forced transition at x/c =  1.0000  134
 idif Ue xi dudx           1  6.62815422E-02  1.72102451E-03   38.512840    
 Uenew xinew           2  5.46339527E-03  1.41859055E-04

   2   rms: 0.6319E+00   max: -.3312E+01   C at  134  2   RLX: 0.151
       a =  7.000      CL =  1.0702
      Cm = -0.1721     CD =  0.01784   =>   CDf =  0.00639    CDp =  0.01145

 Side 1  free  transition at x/c =  0.2377   78
 Side 2 forced transition at x/c =  1.0000  135

   3   rms: 0.2889E+00   max: -.6256E+00   D at  136  2   RLX: 0.530
       a =  7.000      CL =  0.7735
      Cm = -0.0321     CD =  0.03323   =>   CDf =  0.00697    CDp =  0.02627

 Side 1  free  transition at x/c =  0.2383   79
 Side 2 forced transition at x/c =  1.0000  134

   4   rms: 0.3296E+00   max: 0.2382E+01   T at   79  1   RLX: 0.247
       a =  7.000      CL =  0.7187
      Cm = -0.0030     CD =  0.03670   =>   CDf =  0.00727    CDp =  0.02944

 Side 1  free  transition at x/c =  0.2221   78
 Side 2 forced transition at x/c =  1.0000  134

   5   rms: 0.3459E+00   max: -.1501E+01   D at  108  1   RLX: 0.333
       a =  7.000      CL =  0.6767
      Cm =  0.0135     CD =  0.03505   =>   CDf =  0.00717    CDp =  0.02788

 Side 1  free  transition at x/c =  0.2331   79
 Side 2 forced transition at x/c =  1.0000  134

   6   rms: 0.3704E+00   max: -.1310E+01   D at   99  1   RLX: 0.382
       a =  7.000      CL =  0.6897
      Cm =  0.0208     CD =  0.02921   =>   CDf =  0.00773    CDp =  0.02148

 Side 1  free  transition at x/c =  0.2326   79
 Side 2 forced transition at x/c =  1.0000  134

   7   rms: 0.4023E+00   max: -.1453E+01   D at   93  1   RLX: 0.344
       a =  7.000      CL =  0.7468
      Cm =  0.0156     CD =  0.02716   =>   CDf =  0.00860    CDp =  0.01856

 Side 1  free  transition at x/c =  0.2172   78
 Side 2 forced transition at x/c =  1.0000  133

   8   rms: 0.3414E+00   max: 0.3036E+01   T at   78  1   RLX: 0.494
       a =  7.000      CL =  0.8807
      Cm = -0.0061     CD =  0.02870   =>   CDf =  0.00942    CDp =  0.01928

 MRCHDU: Convergence failed at  79  side 1    Res =  0.3632E+02
 MRCHDU: Convergence failed at  80  side 1    Res =  0.2380E+03
 MRCHDU: Convergence failed at  81  side 1    Res =  0.1223E+02
 MRCHDU: Convergence failed at  82  side 1    Res =  0.1746E+02
 MRCHDU: Convergence failed at  83  side 1    Res =  0.2779E+02
 MRCHDU: Convergence failed at  84  side 1    Res =  0.3529E+02
 MRCHDU: Convergence failed at  85  side 1    Res =  0.3422E+02
 MRCHDU: Convergence failed at  86  side 1    Res =  0.3868E+02
 MRCHDU: Convergence failed at  87  side 1    Res =  0.3948E+02
 MRCHDU: Convergence failed at  88  side 1    Res =  0.4036E+02
 MRCHDU: Convergence failed at  89  side 1    Res =  0.3926E+02
 MRCHDU: Convergence failed at  90  side 1    Res =  0.3765E+02
 MRCHDU: Convergence failed at  91  side 1    Res =  0.3829E+02
 MRCHDU: Convergence failed at  92  side 1    Res =  0.3904E+02
 MRCHDU: Convergence failed at  93  side 1    Res =  0.3601E+02
 MRCHDU: Convergence failed at  94  side 1    Res =  0.3431E+02
 MRCHDU: Convergence failed at  95  side 1    Res =  0.3293E+02
 MRCHDU: Convergence failed at  96  side 1    Res =  0.3091E+02
 MRCHDU: Convergence failed at  97  side 1    Res =  0.2855E+02
 MRCHDU: Convergence failed at  98  side 1    Res =  0.2863E+02
 MRCHDU: Convergence failed at  99  side 1    Res =  0.2635E+02
 MRCHDU: Convergence failed at 100  side 1    Res =  0.2439E+02
 MRCHDU: Convergence failed at 101  side 1    Res =  0.2261E+02
 MRCHDU: Convergence failed at 102  side 1    Res =  0.2172E+02
 MRCHDU: Convergence failed at 103  side 1    Res =  0.2034E+02
 MRCHDU: Convergence failed at 104  side 1    Res =  0.1896E+02
 MRCHDU: Convergence failed at 105  side 1    Res =  0.1762E+02
 MRCHDU: Convergence failed at 106  side 1    Res =  0.1576E+02
 MRCHDU: Convergence failed at 107  side 1    Res =  0.1445E+02
 MRCHDU: Convergence failed at 108  side 1    Res =  0.1396E+02
 MRCHDU: Convergence failed at 109  side 1    Res =  0.8094E+01
 MRCHDU: Convergence failed at 110  side 1    Res =  0.8575E+01
 MRCHDU: Convergence failed at 111  side 1    Res =  0.2221E+02
 MRCHDU: Convergence failed at 112  side 1    Res =  0.3514E+02
 MRCHDU: Convergence failed at 113  side 1    Res =  0.3093E+02
 MRCHDU: Convergence failed at 114  side 1    Res =  0.2823E+02
 MRCHDU: Convergence failed at 115  side 1    Res =  0.2606E+02
 MRCHDU: Convergence failed at 116  side 1    Res =  0.2465E+02
 MRCHDU: Convergence failed at 117  side 1    Res =  0.2358E+02
 MRCHDU: Convergence failed at 118  side 1    Res =  0.2253E+02
 MRCHDU: Convergence failed at 119  side 1    Res =  0.2162E+02
 MRCHDU: Convergence failed at 120  side 1    Res =  0.2076E+02
 MRCHDU: Convergence failed at 121  side 1    Res =  0.2009E+02
 MRCHDU: Convergence failed at 122  side 1    Res =  0.1946E+02
 MRCHDU: Convergence failed at 123  side 1    Res =  0.1892E+02
 MRCHDU: Convergence failed at 124  side 1    Res =  0.1840E+02
 MRCHDU: Convergence failed at 125  side 1    Res =  0.1790E+02
 MRCHDU: Convergence failed at 126  side 1    Res =  0.1752E+02
 MRCHDU: Convergence failed at 127  side 1    Res =  0.1709E+02
 MRCHDU: Convergence failed at 128  side 1    Res =  0.1678E+02
 MRCHDU: Convergence failed at 129  side 1    Res =  0.1651E+02
 MRCHDU: Convergence failed at 130  side 1    Res =  0.1610E+02
 MRCHDU: Convergence failed at 131  side 1    Res =  0.1544E+02
 MRCHDU: Convergence failed at 132  side 1    Res =  0.1521E+02
 MRCHDU: Convergence failed at 133  side 1    Res =  0.1495E+02
 MRCHDU: Convergence failed at 134  side 1    Res =  0.1495E+02
 MRCHDU: Convergence failed at 135  side 1    Res =  0.1503E+02
 MRCHDU: Convergence failed at 136  side 1    Res =  0.1517E+02
 MRCHDU: Convergence failed at 137  side 1    Res =  0.1563E+02
 MRCHDU: Convergence failed at 138  side 1    Res =  0.1603E+02
 MRCHDU: Convergence failed at 139  side 1    Res =  0.1655E+02
 MRCHDU: Convergence failed at 140  side 1    Res =  0.2222E+02
 MRCHDU: Convergence failed at 141  side 1    Res =  0.1883E+02
 MRCHDU: Convergence failed at 142  side 1    Res =  0.1397E+02
 MRCHDU: Convergence failed at 143  side 1    Res =  0.2078E+02
 MRCHDU: Convergence failed at 144  side 1    Res =  0.6667E+02
 MRCHDU: Convergence failed at 145  side 1    Res =  0.2964E+02
 MRCHDU: Convergence failed at 146  side 1    Res =  0.3369E+02
 MRCHDU: Convergence failed at 147  side 1    Res =  0.2766E+03
 MRCHDU: Convergence failed at 148  side 1    Res =  0.8678E+02
 MRCHDU: Convergence failed at 149  side 1    Res =  0.4336E+02
 MRCHDU: Convergence failed at 150  side 1    Res =  0.7141E+02
 MRCHDU: Convergence failed at 151  side 1    Res =  0.1172E+03
 MRCHDU: Convergence failed at 152  side 1    Res =  0.9264E+04
 MRCHDU: Convergence failed at 153  side 1    Res =  0.7567E+03
 MRCHDU: Convergence failed at 154  side 1    Res =  0.8800E+02
 MRCHDU: Convergence failed at 155  side 1    Res =  0.4658E+02
 MRCHDU: Convergence failed at 156  side 1    Res =  0.4364E+02
 MRCHDU: Convergence failed at 157  side 1    Res =  0.4076E+02
 MRCHDU: Convergence failed at 158  side 1    Res =  0.4462E+03
 MRCHDU: Convergence failed at 159  side 1    Res =  0.8985E+02
 MRCHDU: Convergence failed at 160  side 1    Res =  0.3143E+02
 MRCHDU: Convergence failed at 161  side 1    Res =  0.2622E+02
 MRCHDU: Convergence failed at 162  side 1    Res =  0.2315E+02
 MRCHDU: Convergence failed at 163  side 1    Res =  0.2471E+02
 MRCHDU: Convergence failed at 164  side 1    Res =  0.3100E+02
 MRCHDU: Convergence failed at 165  side 1    Res =  0.3396E+02
 MRCHDU: Convergence failed at 166  side 1    Res =  0.3589E+02
 MRCHDU: Convergence failed at 167  side 1    Res =  0.3854E+02
 MRCHDU: Convergence failed at 168  side 1    Res =  0.4212E+02
 MRCHDU: Convergence failed at 169  side 1    Res =  0.5463E+02
 MRCHDU: Convergence failed at 170  side 1    Res =  0.8482E+02
 Side 1  free  transition at x/c =  0.1762   74
 Side 2 forced transition at x/c =  1.0000  132
 idif Ue xi dudx           1  6.58960119E-02  2.10368633E-03   31.324068    
 Uenew xinew           2  1.18147554E-02  3.77178192E-04

   9   rms: 0.1048E+01   max: 0.5756E+01   D at  135  2   RLX: 0.109
       a =  7.000      CL =  1.4897
      Cm = -0.2904     CD =  0.01385   =>   CDf =  0.00579    CDp =  0.00806

 Side 1  free  transition at x/c =  0.1887   75
 Side 2 forced transition at x/c =  1.0000  133

  10   rms: 0.3748E+00   max: -.1516E+01   C at  133  2   RLX: 0.330
       a =  7.000      CL =  1.0110
      Cm = -0.1071     CD =  0.03726   =>   CDf =  0.00654    CDp =  0.03072

 Side 1  free  transition at x/c =  0.2000   76
 Side 2 forced transition at x/c =  1.0000  133
 idif Ue xi dudx           1  6.87688142E-02  2.05373764E-03   33.484711    
 Uenew xinew           2  1.35318246E-02  4.04119492E-04

  11   rms: 0.5457E+00   max: -.5890E+01   T at   76  1   RLX: 0.085
       a =  7.000      CL =  0.9331
      Cm = -0.0867     CD =  0.04619   =>   CDf =  0.00699    CDp =  0.03920

 Side 1  free  transition at x/c =  0.2150   77
 Side 2 forced transition at x/c =  1.0000  134

  12   rms: 0.2779E+00   max: -.1112E+01   T at   77  1   RLX: 0.449
       a =  7.000      CL =  0.7774
      Cm = -0.0300     CD =  0.03798   =>   CDf =  0.00706    CDp =  0.03091

 Side 1  free  transition at x/c =  0.2298   78
 Side 2 forced transition at x/c =  1.0000  134

  13   rms: 0.3146E+00   max: 0.1362E+01   T at   78  1   RLX: 0.384
       a =  7.000      CL =  0.7325
      Cm =  0.0006     CD =  0.03651   =>   CDf =  0.00727    CDp =  0.02924

 Side 1  free  transition at x/c =  0.2181   77
 Side 2 forced transition at x/c =  1.0000  134

  14   rms: 0.4121E+00   max: -.1668E+01   D at  107  1   RLX: 0.300
       a =  7.000      CL =  0.6939
      Cm =  0.0170     CD =  0.03556   =>   CDf =  0.00728    CDp =  0.02828

 Side 1  free  transition at x/c =  0.2339   79
 Side 2 forced transition at x/c =  1.0000  134

  15   rms: 0.3824E+00   max: -.1336E+01   D at   98  1   RLX: 0.374
       a =  7.000      CL =  0.7184
      Cm =  0.0239     CD =  0.02872   =>   CDf =  0.00815    CDp =  0.02057

 Side 1  free  transition at x/c =  0.2255   78
 Side 2 forced transition at x/c =  1.0000  134

  16   rms: 0.4153E+00   max: 0.3503E+01   T at   78  1   RLX: 0.410
       a =  7.000      CL =  0.8338
      Cm =  0.0073     CD =  0.02979   =>   CDf =  0.00872    CDp =  0.02107

 MRCHDU: Convergence failed at  80  side 1    Res =  0.1145E+02
 MRCHDU: Convergence failed at  81  side 1    Res =  0.1540E+02
 MRCHDU: Convergence failed at  82  side 1    Res =  0.1056E+02
 MRCHDU: Convergence failed at  83  side 1    Res =  0.8265E+01
 MRCHDU: Convergence failed at  84  side 1    Res =  0.6880E+01
 MRCHDU: Convergence failed at  85  side 1    Res =  0.7258E+01
 MRCHDU: Convergence failed at  86  side 1    Res =  0.7467E+01
 MRCHDU: Convergence failed at  87  side 1    Res =  0.7782E+01
 MRCHDU: Convergence failed at  88  side 1    Res =  0.8148E+01
 MRCHDU: Convergence failed at  89  side 1    Res =  0.8452E+01
 MRCHDU: Convergence failed at  90  side 1    Res =  0.8811E+01
 MRCHDU: Convergence failed at  91  side 1    Res =  0.7494E+01
 MRCHDU: Convergence failed at  92  side 1    Res =  0.7912E+01
 MRCHDU: Convergence failed at  93  side 1    Res =  0.7925E+01
 MRCHDU: Convergence failed at  94  side 1    Res =  0.8236E+01
 MRCHDU: Convergence failed at  95  side 1    Res =  0.8487E+01
 MRCHDU: Convergence failed at  96  side 1    Res =  0.8592E+01
 MRCHDU: Convergence failed at  97  side 1    Res =  0.8665E+01
 MRCHDU: Convergence failed at  98  side 1    Res =  0.8837E+01
 MRCHDU: Convergence failed at  99  side 1    Res =  0.1122E+02
 MRCHDU: Convergence failed at 100  side 1    Res =  0.1148E+02
 MRCHDU: Convergence failed at 101  side 1    Res =  0.9411E+01
 MRCHDU: Convergence failed at 102  side 1    Res =  0.1176E+02
 MRCHDU: Convergence failed at 103  side 1    Res =  0.1079E+02
 MRCHDU: Convergence failed at 104  side 1    Res =  0.1127E+02
 MRCHDU: Convergence failed at 105  side 1    Res =  0.1213E+02
 MRCHDU: Convergence failed at 106  side 1    Res =  0.1440E+02
 MRCHDU: Convergence failed at 107  side 1    Res =  0.1652E+02
 MRCHDU: Convergence failed at 108  side 1    Res =  0.1189E+03
 MRCHDU: Convergence failed at 109  side 1    Res =  0.4990E+01
 MRCHDU: Convergence failed at 110  side 1    Res =  0.4705E+01
 MRCHDU: Convergence failed at 111  side 1    Res =  0.3319E+02
 MRCHDU: Convergence failed at 112  side 1    Res =  0.1477E+03
 MRCHDU: Convergence failed at 113  side 1    Res =  0.7923E+03
 MRCHDU: Convergence failed at 114  side 1    Res =  0.3850E+03
 MRCHDU: Convergence failed at 115  side 1    Res =  0.2024E+03
 MRCHDU: Convergence failed at 116  side 1    Res =  0.1556E+03
 MRCHDU: Convergence failed at 117  side 1    Res =  0.1377E+03
 MRCHDU: Convergence failed at 118  side 1    Res =  0.1306E+03
 MRCHDU: Convergence failed at 119  side 1    Res =  0.1261E+03
 MRCHDU: Convergence failed at 120  side 1    Res =  0.1306E+03
 MRCHDU: Convergence failed at 121  side 1    Res =  0.1349E+03
 MRCHDU: Convergence failed at 122  side 1    Res =  0.1449E+03
 MRCHDU: Convergence failed at 123  side 1    Res =  0.1600E+03
 MRCHDU: Convergence failed at 124  side 1    Res =  0.1840E+03
 MRCHDU: Convergence failed at 125  side 1    Res =  0.2227E+03
 MRCHDU: Convergence failed at 126  side 1    Res =  0.3080E+03
 MRCHDU: Convergence failed at 127  side 1    Res =  0.6683E+03
 MRCHDU: Convergence failed at 128  side 1    Res =  0.8575E+02
 MRCHDU: Convergence failed at 129  side 1    Res =  0.9247E+02
 MRCHDU: Convergence failed at 130  side 1    Res =  0.1005E+03
 MRCHDU: Convergence failed at 131  side 1    Res =  0.1142E+03
 MRCHDU: Convergence failed at 132  side 1    Res =  0.1232E+03
 MRCHDU: Convergence failed at 133  side 1    Res =  0.1083E+03
 MRCHDU: Convergence failed at 134  side 1    Res =  0.7080E+03
 MRCHDU: Convergence failed at 135  side 1    Res =  0.7397E+03
 MRCHDU: Convergence failed at 136  side 1    Res =  0.4689E+03
 MRCHDU: Convergence failed at 137  side 1    Res =  0.2995E+03
 MRCHDU: Convergence failed at 138  side 1    Res =  0.2307E+03
 MRCHDU: Convergence failed at 139  side 1    Res =  0.1942E+03
 MRCHDU: Convergence failed at 140  side 1    Res =  0.1836E+03
 MRCHDU: Convergence failed at 141  side 1    Res =  0.1628E+03
 MRCHDU: Convergence failed at 142  side 1    Res =  0.1563E+03
 MRCHDU: Convergence failed at 143  side 1    Res =  0.1400E+03
 MRCHDU: Convergence failed at 144  side 1    Res =  0.1262E+03
 MRCHDU: Convergence failed at 145  side 1    Res =  0.6563E+02
 MRCHDU: Convergence failed at 146  side 1    Res =  0.5720E+02
 MRCHDU: Convergence failed at 147  side 1    Res =  0.4834E+02
 MRCHDU: Convergence failed at 148  side 1    Res =  0.4010E+02
 MRCHDU: Convergence failed at 149  side 1    Res =  0.3377E+02
 MRCHDU: Convergence failed at 150  side 1    Res =  0.2836E+02
 MRCHDU: Convergence failed at 151  side 1    Res =  0.3877E+02
 MRCHDU: Convergence failed at 152  side 1    Res =  0.2715E+02
 MRCHDU: Convergence failed at 153  side 1    Res =  0.3145E+02
 MRCHDU: Convergence failed at 154  side 1    Res =  0.4060E+02
 MRCHDU: Convergence failed at 155  side 1    Res =  0.5757E+02
 MRCHDU: Convergence failed at 156  side 1    Res =  0.2792E+02
 MRCHDU: Convergence failed at 157  side 1    Res =  0.4304E+02
 MRCHDU: Convergence failed at 158  side 1    Res =  0.1228E+03
 MRCHDU: Convergence failed at 159  side 1    Res =  0.1086E+03
 MRCHDU: Convergence failed at 160  side 1    Res =  0.5135E+02
 MRCHDU: Convergence failed at 161  side 1    Res =  0.5036E+02
 MRCHDU: Convergence failed at 162  side 1    Res =  0.4838E+02
 MRCHDU: Convergence failed at 163  side 1    Res =  0.4271E+02
 MRCHDU: Convergence failed at 164  side 1    Res =  0.3738E+02
 MRCHDU: Convergence failed at 165  side 1    Res =  0.3250E+02
 MRCHDU: Convergence failed at 166  side 1    Res =  0.2678E+02
 MRCHDU: Convergence failed at 167  side 1    Res =  0.2698E+02
 MRCHDU: Convergence failed at 168  side 1    Res =  0.2691E+02
 MRCHDU: Convergence failed at 169  side 1    Res =  0.2686E+02
 MRCHDU: Convergence failed at 170  side 1    Res =  0.2840E+02
 Side 1  free  transition at x/c =  0.1849   75
 Side 2 forced transition at x/c =  1.0000  132
 idif Ue xi dudx           1  7.95149431E-02  2.47502327E-03   32.126949    
 Uenew xinew           2  2.40475070E-02  7.48515129E-04

  17   rms: 0.9764E+00   max: 0.5796E+01   D at  135  2   RLX: 0.105
       a =  7.000      CL =  1.4286
      Cm = -0.2726     CD =  0.01409   =>   CDf =  0.00603    CDp =  0.00805

 Side 1  free  transition at x/c =  0.1947   75
 Side 2 forced transition at x/c =  1.0000  133

  18   rms: 0.7325E+01   max: -.8963E+02   T at   75  1   RLX: 0.006
       a =  7.000      CL =  1.1188
      Cm = -0.1557     CD =  0.04070   =>   CDf =  0.00674    CDp =  0.03396

 MRCHDU: Convergence failed at 109  side 1    Res =  0.1319E+00
 MRCHDU: Convergence failed at 110  side 1    Res =  0.7143E+00
 Side 1  free  transition at x/c =  0.2090   77
 Side 2 forced transition at x/c =  1.0000  133

  19   rms: 0.3547E+00   max: -.1124E+01   D at   96  1   RLX: 0.445
       a =  7.000      CL =  0.8259
      Cm = -0.0172     CD =  0.03183   =>   CDf =  0.00656    CDp =  0.02527

 Side 1  free  transition at x/c =  0.2280   79
 Side 2 forced transition at x/c =  1.0000  133

  20   rms: 0.1410E+01   max: -.4649E+01   D at   95  1   RLX: 0.108
       a =  7.000      CL =  0.7846
      Cm =  0.0293     CD =  0.02942   =>   CDf =  0.00671    CDp =  0.02272

 Side 1  free  transition at x/c =  0.2293   80
 Side 2 forced transition at x/c =  1.0000  132

  21   rms: 0.1563E+01   max: 0.1358E+02   T at    2  1   RLX: 0.090
       a =  7.000      CL =  0.8248
      Cm =  0.0376     CD =  0.02561   =>   CDf =  0.00701    CDp =  0.01860

 Side 1  free  transition at x/c =  0.2185   79
 Side 2 forced transition at x/c =  1.0000  132

  22   rms: 0.5513E+00   max: -.2148E+01   D at  123  1   RLX: 0.233
       a =  7.000      CL =  0.8333
      Cm =  0.0405     CD =  0.02353   =>   CDf =  0.00769    CDp =  0.01584

 Side 1  free  transition at x/c =  0.2010   77
 Side 2 forced transition at x/c =  1.0000  132

  23   rms: 0.3562E+00   max: 0.1822E+01   C at  132  2   RLX: 0.331
       a =  7.000      CL =  0.8444
      Cm =  0.0360     CD =  0.02609   =>   CDf =  0.00858    CDp =  0.01751

 Side 1  free  transition at x/c =  0.1851   75
 Side 2 forced transition at x/c =  1.0000  132

  24   rms: 0.2049E+00   max: 0.1459E+01   C at  132  2   RLX: 0.577
       a =  7.000      CL =  0.8804
      Cm =  0.0088     CD =  0.03288   =>   CDf =  0.00927    CDp =  0.02361

 Side 1  free  transition at x/c =  0.1703   73
 Side 2 forced transition at x/c =  1.0000  132

  25   rms: 0.1291E+00   max: -.6416E+00   D at  165  1   RLX: 0.779
       a =  7.000      CL =  0.8525
      Cm = -0.0028     CD =  0.03186   =>   CDf =  0.00955    CDp =  0.02231

 Side 1  free  transition at x/c =  0.1766   74
 Side 2 forced transition at x/c =  1.0000  132
 idif Ue xi dudx           1  7.66645670E-02  2.44593620E-03   31.343649    
 Uenew xinew           2  2.25495007E-02  7.19428062E-04

  26   rms: 0.8357E-01   max: -.5634E+00   T at   74  1   RLX: 0.887
       a =  7.000      CL =  0.7909
      Cm =  0.0026     CD =  0.03000   =>   CDf =  0.01030    CDp =  0.01970

 Side 1  free  transition at x/c =  0.1905   75
 Side 2 forced transition at x/c =  1.0000  133

  27   rms: 0.2820E-01   max: -.2207E+00   T at   75  1
       a =  7.000      CL =  0.7674
      Cm =  0.0062     CD =  0.03001   =>   CDf =  0.01057    CDp =  0.01944

 Side 1  free  transition at x/c =  0.1955   75
 Side 2 forced transition at x/c =  1.0000  133

  28   rms: 0.2349E-01   max: -.1438E+00   D at   77  1
       a =  7.000      CL =  0.7692
      Cm =  0.0058     CD =  0.02998   =>   CDf =  0.01054    CDp =  0.01945

 Side 1  free  transition at x/c =  0.1965   75
 Side 2 forced transition at x/c =  1.0000  133

  29   rms: 0.1825E-02   max: 0.1285E-01   T at   75  1
       a =  7.000      CL =  0.7700
      Cm =  0.0057     CD =  0.03006   =>   CDf =  0.01059    CDp =  0.01947

 Side 1  free  transition at x/c =  0.1961   75
 Side 2 forced transition at x/c =  1.0000  133

  30   rms: 0.1819E-03   max: -.1366E-02   T at   75  1
       a =  7.000      CL =  0.7699
      Cm =  0.0057     CD =  0.03005   =>   CDf =  0.01057    CDp =  0.01948

 Side 1  free  transition at x/c =  0.1962   75
 Side 2 forced transition at x/c =  1.0000  133

  31   rms: 0.9923E-05   max: 0.1091E-03   T at   75  1
       a =  7.000      CL =  0.7699
      Cm =  0.0057     CD =  0.03005   =>   CDf =  0.01057    CDp =  0.01948
 plradd ia,ip,cpol            8         168  5.29451342E-03

 Point added to stored polar  1
 Save file unspecified or not available
 Dump file unspecified or not available

.OPERva   c>  
.OPERva   c>  
.OPERva   c>   Calculating wake trajectory ...
 Array size (IWX) too small.  Last wake point index reduced.
 Calculating source influence matrix ...

 Solving BL system ...

 Side 1  free  transition at x/c =  0.1962   75
 Side 2 forced transition at x/c =  1.0000  133

   1   rms: 0.2655E+00   max: 0.2561E+01   T at   75  1   RLX: 0.354
       a =  8.000      CL =  0.7914
      Cm =  0.0089     CD =  0.03311   =>   CDf =  0.01058    CDp =  0.02252

 Side 1  free  transition at x/c =  0.1754   73
 Side 2 forced transition at x/c =  1.0000  133

   2   rms: 0.1017E+00   max: 0.1163E+01   T at   73  1
       a =  8.000      CL =  0.8373
      Cm =  0.0126     CD =  0.03689   =>   CDf =  0.00971    CDp =  0.02718

 Side 1  free  transition at x/c =  0.1556   72
 Side 2 forced transition at x/c =  1.0000  131

   3   rms: 0.5575E-01   max: -.4619E+00   D at   74  1
       a =  8.000      CL =  0.8429
      Cm =  0.0118     CD =  0.03731   =>   CDf =  0.00944    CDp =  0.02787

 Side 1  free  transition at x/c =  0.1528   72
 Side 2 forced transition at x/c =  1.0000  131

   4   rms: 0.1056E-01   max: -.7446E-01   D at   74  1
       a =  8.000      CL =  0.8460
      Cm =  0.0113     CD =  0.03730   =>   CDf =  0.00993    CDp =  0.02737

 Side 1  free  transition at x/c =  0.1526   72
 Side 2 forced transition at x/c =  1.0000  131

   5   rms: 0.1027E-02   max: 0.6619E-02   T at   72  1
       a =  8.000      CL =  0.8469
      Cm =  0.0112     CD =  0.03735   =>   CDf =  0.01000    CDp =  0.02735

 Side 1  free  transition at x/c =  0.1525   72
 Side 2 forced transition at x/c =  1.0000  131

   6   rms: 0.3189E-04   max: -.1573E-03   C at  131  2
       a =  8.000      CL =  0.8469
      Cm =  0.0112     CD =  0.03734   =>   CDf =  0.00999    CDp =  0.02735
 plradd ia,ip,cpol            9         170  3.69658368E-03

 Point added to stored polar  1
 Save file unspecified or not available
 Dump file unspecified or not available

.OPERva   c>  
.OPERva   c>  
.OPERva   c>   Calculating wake trajectory ...
 Array size (IWX) too small.  Last wake point index reduced.
 Calculating source influence matrix ...

 Solving BL system ...

 Side 1  free  transition at x/c =  0.1525   72
 Side 2 forced transition at x/c =  1.0000  131

   1   rms: 0.1781E+00   max: 0.1506E+01   T at   72  1   RLX: 0.996
       a =  9.000      CL =  0.9234
      Cm =  0.0162     CD =  0.04649   =>   CDf =  0.00979    CDp =  0.03670

 MRCHDU: Convergence failed at  77  side 1    Res =  0.1549E+01
 MRCHDU: Convergence failed at  78  side 1    Res =  0.5635E+01
 MRCHDU: Convergence failed at  79  side 1    Res =  0.1755E+02
 MRCHDU: Convergence failed at  80  side 1    Res =  0.5136E+01
 MRCHDU: Convergence failed at  81  side 1    Res =  0.3541E+01
 MRCHDU: Convergence failed at  82  side 1    Res =  0.2906E+01
 MRCHDU: Convergence failed at  83  side 1    Res =  0.2636E+01
 MRCHDU: Convergence failed at  84  side 1    Res =  0.2481E+01
 MRCHDU: Convergence failed at  85  side 1    Res =  0.2491E+01
 MRCHDU: Convergence failed at  86  side 1    Res =  0.2534E+01
 MRCHDU: Convergence failed at  87  side 1    Res =  0.2874E+01
 MRCHDU: Convergence failed at  88  side 1    Res =  0.3318E+01
 MRCHDU: Convergence failed at  89  side 1    Res =  0.3870E+01
 MRCHDU: Convergence failed at  90  side 1    Res =  0.4498E+01
 MRCHDU: Convergence failed at  91  side 1    Res =  0.5726E+01
 MRCHDU: Convergence failed at  92  side 1    Res =  0.6835E+01
 MRCHDU: Convergence failed at  93  side 1    Res =  0.8197E+01
 MRCHDU: Convergence failed at  94  side 1    Res =  0.9593E+01
 MRCHDU: Convergence failed at  95  side 1    Res =  0.1114E+02
 MRCHDU: Convergence failed at  96  side 1    Res =  0.1352E+02
 MRCHDU: Convergence failed at  97  side 1    Res =  0.1560E+02
 MRCHDU: Convergence failed at  98  side 1    Res =  0.1774E+02
 MRCHDU: Convergence failed at  99  side 1    Res =  0.1992E+02
 MRCHDU: Convergence failed at 100  side 1    Res =  0.2191E+02
 MRCHDU: Convergence failed at 101  side 1    Res =  0.2363E+02
 MRCHDU: Convergence failed at 102  side 1    Res =  0.2504E+02
 MRCHDU: Convergence failed at 103  side 1    Res =  0.2593E+02
 MRCHDU: Convergence failed at 104  side 1    Res =  0.2655E+02
 MRCHDU: Convergence failed at 105  side 1    Res =  0.2661E+02
 MRCHDU: Convergence failed at 106  side 1    Res =  0.2629E+02
 MRCHDU: Convergence failed at 107  side 1    Res =  0.2265E+02
 MRCHDU: Convergence failed at 108  side 1    Res =  0.1770E+02
 MRCHDU: Convergence failed at 109  side 1    Res =  0.1725E+02
 MRCHDU: Convergence failed at 110  side 1    Res =  0.1676E+02
 MRCHDU: Convergence failed at 111  side 1    Res =  0.1627E+02
 MRCHDU: Convergence failed at 112  side 1    Res =  0.1573E+02
 MRCHDU: Convergence failed at 113  side 1    Res =  0.1518E+02
 MRCHDU: Convergence failed at 114  side 1    Res =  0.1466E+02
 MRCHDU: Convergence failed at 115  side 1    Res =  0.1415E+02
 MRCHDU: Convergence failed at 116  side 1    Res =  0.1366E+02
 MRCHDU: Convergence failed at 117  side 1    Res =  0.1319E+02
 MRCHDU: Convergence failed at 118  side 1    Res =  0.1217E+02
 MRCHDU: Convergence failed at 119  side 1    Res =  0.1179E+02
 MRCHDU: Convergence failed at 120  side 1    Res =  0.1099E+02
 MRCHDU: Convergence failed at 121  side 1    Res =  0.9476E+01
 MRCHDU: Convergence failed at 122  side 1    Res =  0.9240E+01
 MRCHDU: Convergence failed at 123  side 1    Res =  0.9018E+01
 MRCHDU: Convergence failed at 124  side 1    Res =  0.8805E+01
 MRCHDU: Convergence failed at 125  side 1    Res =  0.8591E+01
 MRCHDU: Convergence failed at 126  side 1    Res =  0.8383E+01
 MRCHDU: Convergence failed at 127  side 1    Res =  0.8181E+01
 MRCHDU: Convergence failed at 128  side 1    Res =  0.7756E+01
 MRCHDU: Convergence failed at 129  side 1    Res =  0.7977E+01
 MRCHDU: Convergence failed at 130  side 1    Res =  0.1132E+02
 MRCHDU: Convergence failed at 131  side 1    Res =  0.1209E+02
 MRCHDU: Convergence failed at 132  side 1    Res =  0.1165E+02
 MRCHDU: Convergence failed at 133  side 1    Res =  0.1124E+02
 MRCHDU: Convergence failed at 134  side 1    Res =  0.1082E+02
 MRCHDU: Convergence failed at 135  side 1    Res =  0.1038E+02
 MRCHDU: Convergence failed at 136  side 1    Res =  0.1827E+02
 MRCHDU: Convergence failed at 137  side 1    Res =  0.1852E+02
 MRCHDU: Convergence failed at 138  side 1    Res =  0.1884E+02
 MRCHDU: Convergence failed at 139  side 1    Res =  0.1909E+02
 MRCHDU: Convergence failed at 140  side 1    Res =  0.1609E+02
 MRCHDU: Convergence failed at 141  side 1    Res =  0.1678E+02
 MRCHDU: Convergence failed at 142  side 1    Res =  0.1199E+02
 MRCHDU: Convergence failed at 143  side 1    Res =  0.1256E+02
 MRCHDU: Convergence failed at 144  side 1    Res =  0.1320E+02
 MRCHDU: Convergence failed at 145  side 1    Res =  0.1391E+02
 MRCHDU: Convergence failed at 146  side 1    Res =  0.1471E+02
 MRCHDU: Convergence failed at 147  side 1    Res =  0.1561E+02
 MRCHDU: Convergence failed at 148  side 1    Res =  0.1665E+02
 MRCHDU: Convergence failed at 149  side 1    Res =  0.1785E+02
 MRCHDU: Convergence failed at 150  side 1    Res =  0.2587E+02
 MRCHDU: Convergence failed at 151  side 1    Res =  0.2099E+02
 MRCHDU: Convergence failed at 152  side 1    Res =  0.2271E+02
 MRCHDU: Convergence failed at 153  side 1    Res =  0.2467E+02
 MRCHDU: Convergence failed at 154  side 1    Res =  0.3168E+02
 MRCHDU: Convergence failed at 155  side 1    Res =  0.3380E+02
 MRCHDU: Convergence failed at 156  side 1    Res =  0.2982E+02
 MRCHDU: Convergence failed at 157  side 1    Res =  0.1138E+02
 MRCHDU: Convergence failed at 158  side 1    Res =  0.1230E+02
 MRCHDU: Convergence failed at 159  side 1    Res =  0.1178E+02
 MRCHDU: Convergence failed at 160  side 1    Res =  0.4221E+02
 MRCHDU: Convergence failed at 161  side 1    Res =  0.1972E+03
 MRCHDU: Convergence failed at 162  side 1    Res =  0.1738E+04
 MRCHDU: Convergence failed at 163  side 1    Res =  0.7409E+03
 MRCHDU: Convergence failed at 164  side 1    Res =  0.1645E+03
 MRCHDU: Convergence failed at 165  side 1    Res =  0.9249E+02
 MRCHDU: Convergence failed at 166  side 1    Res =  0.6434E+02
 MRCHDU: Convergence failed at 167  side 1    Res =  0.4975E+02
 MRCHDU: Convergence failed at 168  side 1    Res =  0.3841E+02
 MRCHDU: Convergence failed at 169  side 1    Res =  0.3593E+02
 MRCHDU: Convergence failed at 170  side 1    Res =  0.2958E+02
 MRCHDU: Convergence failed at 171  side 1    Res =  0.2354E+02
 MRCHDU: Convergence failed at 172  side 1    Res =  0.2196E+02
 MRCHDU: Convergence failed at 173  side 1    Res =  0.2075E+02
 Side 1  free  transition at x/c =  0.1327   71
 Side 2 forced transition at x/c =  1.0000  129
 idif Ue xi dudx           1  5.54799326E-02  2.21431255E-03   25.055149    
 Uenew xinew           2  5.27470047E-03  2.10523605E-04

   2   rms: 0.7562E+00   max: -.8245E+01   T at    2  1   RLX: 0.061
       a =  9.000      CL =  1.8022
      Cm = -0.3482     CD =  0.01746   =>   CDf =  0.00631    CDp =  0.01115

 Side 1  free  transition at x/c =  0.1333   71
 Side 2 forced transition at x/c =  1.0000  130

   3   rms: 0.6184E+00   max: 0.2046E+01   T at    2  2   RLX: 0.568
       a =  9.000      CL =  1.3558
      Cm = -0.1352     CD =  0.02179   =>   CDf =  0.01816    CDp =  0.00363

 Side 1  free  transition at x/c =  0.1244   71
 Side 2 forced transition at x/c =  1.0000  128
 idif Ue xi dudx           1  6.41772822E-02  2.75278091E-03   23.313618    
 Uenew xinew           2  1.48659395E-02  6.37650490E-04

   4   rms: 0.3148E+00   max: 0.5948E+00   D at  155  2
       a =  9.000      CL =  0.9881
      Cm =  0.0088     CD =  0.03916   =>   CDf =  0.01296    CDp =  0.02620

 Side 1  free  transition at x/c =  0.1243   70
 Side 2 forced transition at x/c =  1.0000  129

   5   rms: 0.7581E-01   max: -.3615E+00   D at  170  1
       a =  9.000      CL =  0.9370
      Cm =  0.0128     CD =  0.04668   =>   CDf =  0.00832    CDp =  0.03836

 Side 1  free  transition at x/c =  0.1288   71
 Side 2 forced transition at x/c =  1.0000  129
 idif Ue xi dudx           1  6.57110736E-02  2.56717205E-03   25.596678    
 Uenew xinew           2  1.44207356E-02  5.63383102E-04

   6   rms: 0.9047E-01   max: 0.3463E+00   D at   75  1
       a =  9.000      CL =  0.9022
      Cm =  0.0173     CD =  0.04966   =>   CDf =  0.00929    CDp =  0.04037

 Side 1  free  transition at x/c =  0.1316   70
 Side 2 forced transition at x/c =  1.0000  130

   7   rms: 0.3185E-01   max: -.1173E+00   D at   73  1
       a =  9.000      CL =  0.8976
      Cm =  0.0179     CD =  0.04746   =>   CDf =  0.00859    CDp =  0.03887

 Side 1  free  transition at x/c =  0.1320   70
 Side 2 forced transition at x/c =  1.0000  130

   8   rms: 0.6125E-02   max: 0.2787E-01   D at  172  1
       a =  9.000      CL =  0.9008
      Cm =  0.0176     CD =  0.04799   =>   CDf =  0.00895    CDp =  0.03904

 Side 1  free  transition at x/c =  0.1317   70
 Side 2 forced transition at x/c =  1.0000  130

   9   rms: 0.8182E-03   max: -.3825E-02   D at  172  1
       a =  9.000      CL =  0.9004
      Cm =  0.0176     CD =  0.04789   =>   CDf =  0.00887    CDp =  0.03902

 Side 1  free  transition at x/c =  0.1317   70
 Side 2 forced transition at x/c =  1.0000  130

  10   rms: 0.9965E-04   max: 0.5023E-03   D at  172  1
       a =  9.000      CL =  0.9005
      Cm =  0.0176     CD =  0.04790   =>   CDf =  0.00888    CDp =  0.03902
 plradd ia,ip,cpol           10         171  3.00672138E-03

 Point added to stored polar  1
 Save file unspecified or not available
 Dump file unspecified or not available

.OPERva   c>  
.OPERva   c>  
.OPERva   c>   Calculating wake trajectory ...
 Array size (IWX) too small.  Last wake point index reduced.
 Calculating source influence matrix ...

 Solving BL system ...

 Side 1  free  transition at x/c =  0.1317   70
 Side 2 forced transition at x/c =  1.0000  130

   1   rms: 0.2404E+00   max: 0.7109E+00   T at   70  1
       a = 10.000      CL =  0.9124
      Cm =  0.0255     CD =  0.06726   =>   CDf =  0.00878    CDp =  0.05848

 MRCHDU: Convergence failed at 161  side 1    Res =  0.2621E+01
 MRCHDU: Convergence failed at 162  side 1    Res =  0.2397E+01
 MRCHDU: Convergence failed at 163  side 1    Res =  0.2422E+01
 MRCHDU: Convergence failed at 164  side 1    Res =  0.2508E+01
 MRCHDU: Convergence failed at 165  side 1    Res =  0.2601E+01
 MRCHDU: Convergence failed at 166  side 1    Res =  0.2587E+01
 MRCHDU: Convergence failed at 167  side 1    Res =  0.2713E+01
 MRCHDU: Convergence failed at 168  side 1    Res =  0.2795E+01
 MRCHDU: Convergence failed at 169  side 1    Res =  0.2995E+01
 MRCHDU: Convergence failed at 170  side 1    Res =  0.3199E+01
 MRCHDU: Convergence failed at 171  side 1    Res =  0.3404E+01
 MRCHDU: Convergence failed at 172  side 1    Res =  0.3621E+01
 MRCHDU: Convergence failed at 173  side 1    Res =  0.3758E+01
 Side 1  free  transition at x/c =  0.1287   71
 Side 2 forced transition at x/c =  1.0000  129

   2   rms: 0.6679E-01   max: 0.2713E+00   D at   71  1
       a = 10.000      CL =  0.8660
      Cm =  0.0261     CD =  0.06273   =>   CDf =  0.00682    CDp =  0.05591

 Side 1  free  transition at x/c =  0.1282   71
 Side 2 forced transition at x/c =  1.0000  129

   3   rms: 0.3915E-01   max: 0.1889E+00   D at  167  1
       a = 10.000      CL =  0.8766
      Cm =  0.0243     CD =  0.06748   =>   CDf =  0.00752    CDp =  0.05996

 Side 1  free  transition at x/c =  0.1282   71
 Side 2 forced transition at x/c =  1.0000  129
 idif Ue xi dudx           1  6.18316792E-02  2.45761871E-03   25.159184    
 Uenew xinew           2  1.14179859E-02  4.53829765E-04

   4   rms: 0.3376E-01   max: -.1649E+00   T at   71  1
       a = 10.000      CL =  0.8538
      Cm =  0.0243     CD =  0.06784   =>   CDf =  0.00726    CDp =  0.06058

 Side 1  free  transition at x/c =  0.1304   70
 Side 2 forced transition at x/c =  1.0000  130

   5   rms: 0.2405E-01   max: -.7157E-01   D at  106  1
       a = 10.000      CL =  0.8508
      Cm =  0.0257     CD =  0.06533   =>   CDf =  0.00708    CDp =  0.05825

 Side 1  free  transition at x/c =  0.1299   70
 Side 2 forced transition at x/c =  1.0000  130

   6   rms: 0.1412E-01   max: -.5530E-01   D at  152  2
       a = 10.000      CL =  0.8616
      Cm =  0.0249     CD =  0.06675   =>   CDf =  0.00730    CDp =  0.05945

 Side 1  free  transition at x/c =  0.1293   70
 Side 2 forced transition at x/c =  1.0000  130

   7   rms: 0.3116E-02   max: 0.1452E-01   D at  150  2
       a = 10.000      CL =  0.8594
      Cm =  0.0250     CD =  0.06634   =>   CDf =  0.00719    CDp =  0.05915

 Side 1  free  transition at x/c =  0.1294   70
 Side 2 forced transition at x/c =  1.0000  130

   8   rms: 0.8410E-03   max: -.4487E-02   D at  150  2
       a = 10.000      CL =  0.8600
      Cm =  0.0250     CD =  0.06641   =>   CDf =  0.00721    CDp =  0.05920

 Side 1  free  transition at x/c =  0.1294   70
 Side 2 forced transition at x/c =  1.0000  130

   9   rms: 0.9344E-04   max: 0.6330E-03   D at  151  2
       a = 10.000      CL =  0.8599
      Cm =  0.0250     CD =  0.06640   =>   CDf =  0.00721    CDp =  0.05919
 plradd ia,ip,cpol           11         171  3.00672138E-03

 Point added to stored polar  1
 Save file unspecified or not available
 Dump file unspecified or not available

.OPERva   c>  
.OPERva   c>  
.OPERva   c>   Calculating wake trajectory ...
 Array size (IWX) too small.  Last wake point index reduced.
 Calculating source influence matrix ...

 Solving BL system ...

 Side 1  free  transition at x/c =  0.1294   70
 Side 2 forced transition at x/c =  1.0000  130

   1   rms: 0.2763E+00   max: 0.7679E+00   D at  119  1   RLX: 0.954
       a = 11.000      CL =  0.8000
      Cm =  0.0241     CD =  0.10072   =>   CDf =  0.00723    CDp =  0.09348

 Side 1  free  transition at x/c =  0.1428   72
 Side 2 forced transition at x/c =  1.0000  130

   2   rms: 0.8595E-01   max: 0.4804E+00   T at   72  1
       a = 11.000      CL =  0.7722
      Cm =  0.0233     CD =  0.09425   =>   CDf =  0.00677    CDp =  0.08748

 Side 1  free  transition at x/c =  0.1383   71
 Side 2 forced transition at x/c =  1.0000  130

   3   rms: 0.1064E+00   max: -.6630E+00   T at   71  1   RLX: 0.754
       a = 11.000      CL =  0.7705
      Cm =  0.0166     CD =  0.09924   =>   CDf =  0.00687    CDp =  0.09237

 Side 1  free  transition at x/c =  0.1441   72
 Side 2 forced transition at x/c =  1.0000  130

   4   rms: 0.1089E+00   max: 0.1164E+01   T at   72  1
       a = 11.000      CL =  0.8057
      Cm =  0.0289     CD =  0.08036   =>   CDf =  0.00666    CDp =  0.07370

 Side 1  free  transition at x/c =  0.1310   71
 Side 2 forced transition at x/c =  1.0000  129
 idif Ue xi dudx           1  6.48185760E-02  2.54249573E-03   25.494074    
 Uenew xinew           2  1.37338303E-02  5.38706779E-04

   5   rms: 0.1363E+00   max: -.1154E+01   T at    2  1   RLX: 0.433
       a = 11.000      CL =  0.8268
      Cm =  0.0160     CD =  0.08908   =>   CDf =  0.00701    CDp =  0.08207

 Side 1  free  transition at x/c =  0.1346   71
 Side 2 forced transition at x/c =  1.0000  130

   6   rms: 0.2416E+00   max: 0.2305E+01   T at   71  1   RLX: 0.651
       a = 11.000      CL =  0.8685
      Cm =  0.0348     CD =  0.06754   =>   CDf =  0.00659    CDp =  0.06096

 Side 1  free  transition at x/c =  0.1228   71
 Side 2 forced transition at x/c =  1.0000  128
 idif Ue xi dudx           1  8.04992691E-02  3.34322453E-03   24.078331    
 Uenew xinew           2  2.95704566E-02  1.22809410E-03

   7   rms: 0.2161E+00   max: -.9488E+00   T at   71  1   RLX: 0.527
       a = 11.000      CL =  0.8569
      Cm =  0.0215     CD =  0.08731   =>   CDf =  0.00716    CDp =  0.08015

 Side 1  free  transition at x/c =  0.1292   71
 Side 2 forced transition at x/c =  1.0000  129

   8   rms: 0.5313E+00   max: 0.1770E+01   D at  173  1   RLX: 0.324
       a = 11.000      CL =  0.8789
      Cm =  0.0163     CD =  0.08699   =>   CDf =  0.00768    CDp =  0.07931

 Side 1  free  transition at x/c =  0.1386   72
 Side 2 forced transition at x/c =  1.0000  129
 idif Ue xi dudx           1  5.35970666E-02  2.19571590E-03   24.409836    
 Uenew xinew           2  4.68490552E-03  1.91926956E-04

   9   rms: 0.9875E+00   max: -.5718E+01   T at   72  1   RLX: 0.087
       a = 11.000      CL =  0.8523
      Cm =  0.0113     CD =  0.08054   =>   CDf =  0.00701    CDp =  0.07352

 Side 1  free  transition at x/c =  0.1500   73
 Side 2 forced transition at x/c =  1.0000  130
 idif Ue xi dudx           1  5.69234975E-02  2.17425823E-03   26.180653    
 Uenew xinew           2  7.10646482E-03  2.71439552E-04

  10   rms: 0.1778E+00   max: 0.6528E+00   D at  152  2
       a = 11.000      CL =  0.7573
      Cm =  0.0174     CD =  0.10538   =>   CDf =  0.00675    CDp =  0.09863

 Side 1  free  transition at x/c =  0.1489   72
 Side 2 forced transition at x/c =  1.0000  131

  11   rms: 0.6767E-01   max: 0.2938E+00   D at  157  2
       a = 11.000      CL =  0.7413
      Cm =  0.0150     CD =  0.10190   =>   CDf =  0.00677    CDp =  0.09513

 Side 1  free  transition at x/c =  0.1473   71
 Side 2 forced transition at x/c =  1.0000  131

  12   rms: 0.6820E-01   max: -.5007E+00   T at   71  1   RLX: 0.999
       a = 11.000      CL =  0.7559
      Cm =  0.0120     CD =  0.10470   =>   CDf =  0.00686    CDp =  0.09784

 Side 1  free  transition at x/c =  0.1518   72
 Side 2 forced transition at x/c =  1.0000  131

  13   rms: 0.7512E-01   max: 0.9950E+00   T at   72  1
       a = 11.000      CL =  0.7650
[...]
 MRCHDU: Convergence failed at 125  side 1    Res =  0.1018E+02
 MRCHDU: Convergence failed at 126  side 1    Res =  0.1723E+02
 MRCHDU: Convergence failed at 127  side 1    Res =  0.2892E+02
 MRCHDU: Convergence failed at 128  side 1    Res =  0.6218E+02
 MRCHDU: Convergence failed at 129  side 1    Res =  0.1427E+03
 MRCHDU: Convergence failed at 130  side 1    Res =  0.1917E+04
 MRCHDU: Convergence failed at 131  side 1    Res =  0.2234E+03
 MRCHDU: Convergence failed at 132  side 1    Res =  0.1173E+03
 MRCHDU: Convergence failed at 133  side 1    Res =  0.8750E+02
 MRCHDU: Convergence failed at 134  side 1    Res =  0.7461E+02
 MRCHDU: Convergence failed at 135  side 1    Res =  0.6578E+02
 MRCHDU: Convergence failed at 136  side 1    Res =  0.6066E+02
 MRCHDU: Convergence failed at 137  side 1    Res =  0.5784E+02
 MRCHDU: Convergence failed at 138  side 1    Res =  0.5623E+02
 MRCHDU: Convergence failed at 139  side 1    Res =  0.5478E+02
 MRCHDU: Convergence failed at 140  side 1    Res =  0.5351E+02
 MRCHDU: Convergence failed at 141  side 1    Res =  0.5285E+02
 MRCHDU: Convergence failed at 142  side 1    Res =  0.2360E+03
 MRCHDU: Convergence failed at 143  side 1    Res =  0.2252E+03
 MRCHDU: Convergence failed at 144  side 1    Res =  0.2162E+03
 MRCHDU: Convergence failed at 145  side 1    Res =  0.2062E+03
 MRCHDU: Convergence failed at 146  side 1    Res =  0.1984E+03
 MRCHDU: Convergence failed at 147  side 1    Res =  0.1916E+03
 MRCHDU: Convergence failed at 148  side 1    Res =  0.1880E+03
 MRCHDU: Convergence failed at 149  side 1    Res =  0.1837E+03
 MRCHDU: Convergence failed at 150  side 1    Res =  0.1781E+03
 MRCHDU: Convergence failed at 151  side 1    Res =  0.1726E+03
 MRCHDU: Convergence failed at 152  side 1    Res =  0.1682E+03
 MRCHDU: Convergence failed at 153  side 1    Res =  0.1634E+03
 MRCHDU: Convergence failed at 154  side 1    Res =  0.1596E+03
 MRCHDU: Convergence failed at 155  side 1    Res =  0.1556E+03
 MRCHDU: Convergence failed at 156  side 1    Res =  0.1524E+03
 MRCHDU: Convergence failed at 157  side 1    Res =  0.1491E+03
 MRCHDU: Convergence failed at 158  side 1    Res =  0.1448E+03
 MRCHDU: Convergence failed at 159  side 1    Res =  0.1417E+03
 MRCHDU: Convergence failed at 160  side 1    Res =  0.1384E+03
 MRCHDU: Convergence failed at 161  side 1    Res =  0.1332E+03
 MRCHDU: Convergence failed at 162  side 1    Res =  0.1312E+03
 MRCHDU: Convergence failed at 163  side 1    Res =  0.1290E+03
 MRCHDU: Convergence failed at 164  side 1    Res =  0.1251E+03
 MRCHDU: Convergence failed at 165  side 1    Res =  0.1239E+03
 MRCHDU: Convergence failed at 166  side 1    Res =  0.1230E+03
 MRCHDU: Convergence failed at 167  side 1    Res =  0.1221E+03
 MRCHDU: Convergence failed at 168  side 1    Res =  0.1202E+03
 MRCHDU: Convergence failed at 169  side 1    Res =  0.1200E+03
 MRCHDU: Convergence failed at 170  side 1    Res =  0.1198E+03
 MRCHDU: Convergence failed at 171  side 1    Res =  0.1224E+03
 Side 1  free  transition at x/c =  0.7543  141
 Side 2 forced transition at x/c =  1.0000  131

  12   rms: 0.7626E+01   max: 0.1375E+03   T at  141  1   RLX: 0.011
       a = 12.000      CL =  1.3925
      Cm = -0.2792     CD =  0.01570   =>   CDf =  0.00623    CDp =  0.00946

 Side 1  free  transition at x/c =  0.7494  141
 Side 2 forced transition at x/c =  1.0000  131

  13   rms: 0.2029E+01   max: 0.1906E+02   T at  141  1   RLX: 0.079
       a = 12.000      CL =  1.4277
      Cm = -0.2459     CD =  0.06620   =>   CDf =  0.00621    CDp =  0.05999

 Side 1  free  transition at x/c =  0.2970   90
 Side 2 forced transition at x/c =  1.0000  130

  14   rms: 0.8037E+00   max: 0.1609E+02   T at   90  1   RLX: 0.059
       a = 12.000      CL =  1.4075
      Cm = -0.2575     CD =  0.10524   =>   CDf =  0.00644    CDp =  0.09880

 Side 1  free  transition at x/c =  0.2733   88
 Side 2 forced transition at x/c =  1.0000  130

  15   rms: 0.7009E+00   max: 0.1046E+02   T at   88  1   RLX: 0.143
       a = 12.000      CL =  1.3585
      Cm = -0.2335     CD =  0.10918   =>   CDf =  0.00660    CDp =  0.10258

 Side 1  free  transition at x/c =  0.2613   86
 Side 2 forced transition at x/c =  1.0000  130
 idif Ue xi dudx           1  8.77355561E-02  3.27551365E-03   26.785282    
 Uenew xinew           2  3.67680229E-02  1.37269497E-03

  16   rms: 0.5188E+00   max: 0.3121E+01   T at   86  1   RLX: 0.284
       a = 12.000      CL =  1.1836
      Cm = -0.1896     CD =  0.10946   =>   CDf =  0.00698    CDp =  0.10248

 Side 1  free  transition at x/c =  0.2478   84
 Side 2 forced transition at x/c =  1.0000  131
 idif Ue xi dudx           1  5.90298325E-02  2.10607052E-03   28.028421    
 Uenew xinew           2  8.27627163E-03  2.95281410E-04

  17   rms: 0.4557E+00   max: -.2898E+01   D at  167  2   RLX: 0.173
       a = 12.000      CL =  1.1066
      Cm = -0.1661     CD =  0.14827   =>   CDf =  0.00749    CDp =  0.14077

 Side 1  free  transition at x/c =  0.2464   82
 Side 2 forced transition at x/c =  1.0000  132

  18   rms: 0.4477E+00   max: -.2504E+01   D at  168  2   RLX: 0.200
       a = 12.000      CL =  0.9927
      Cm = -0.1354     CD =  0.15203   =>   CDf =  0.00764    CDp =  0.14439

 Side 1  free  transition at x/c =  0.2466   82
 Side 2 forced transition at x/c =  1.0000  132
 idif Ue xi dudx           1  6.44775555E-02  2.27558613E-03   28.334482    
 Uenew xinew           2  1.55578405E-02  5.49077988E-04

  19   rms: 0.4159E+00   max: -.2640E+01   D at  168  2   RLX: 0.189
       a = 12.000      CL =  0.9009
      Cm = -0.1099     CD =  0.15805   =>   CDf =  0.00792    CDp =  0.15013

 Side 1  free  transition at x/c =  0.2468   81
 Side 2 forced transition at x/c =  1.0000  133

  20   rms: 0.3652E+00   max: -.2237E+01   D at  169  2   RLX: 0.224
       a = 12.000      CL =  0.8113
      Cm = -0.0864     CD =  0.15459   =>   CDf =  0.00791    CDp =  0.14668

 Side 1  free  transition at x/c =  0.2524   82
 Side 2 forced transition at x/c =  1.0000  133
 idif Ue xi dudx           1  6.72287494E-02  2.07543373E-03   32.392628    
 Uenew xinew           2  1.37932859E-02  4.25815582E-04

  21   rms: 0.3045E+00   max: -.1862E+01   D at  169  2   RLX: 0.269
       a = 12.000      CL =  0.7132
      Cm = -0.0592     CD =  0.13735   =>   CDf =  0.00801    CDp =  0.12933

 MRCHDU: Convergence failed at 170  side 2    Res =  0.1353E-01
 Side 1  free  transition at x/c =  0.2530   81
 Side 2 forced transition at x/c =  1.0000  134

  22   rms: 0.2637E+00   max: -.1216E+01   D at  170  2   RLX: 0.411
       a = 12.000      CL =  0.6193
      Cm = -0.0371     CD =  0.11181   =>   CDf =  0.00790    CDp =  0.10392

 MRCHDU: Convergence failed at 170  side 2    Res =  0.1425E+00
 Side 1  free  transition at x/c =  0.2533   81
 Side 2 forced transition at x/c =  1.0000  134
 idif Ue xi dudx           1  8.83050710E-02  2.65717506E-03   33.232689    
 Uenew xinew           2  3.58251594E-02  1.07800961E-03

  23   rms: 0.2501E+00   max: 0.9407E+00   C at  134  2   RLX: 0.717
       a = 12.000      CL =  0.4621
      Cm = -0.0091     CD =  0.12376   =>   CDf =  0.00786    CDp =  0.11590

 Side 1  free  transition at x/c =  0.2525   80
 Side 2 forced transition at x/c =  1.0000  135

  24   rms: 0.1028E+00   max: -.5888E+00   D at  169  2   RLX: 0.849
       a = 12.000      CL =  0.4747
      Cm = -0.0075     CD =  0.13609   =>   CDf =  0.00717    CDp =  0.12892

 Side 1  free  transition at x/c =  0.2511   80
 Side 2 forced transition at x/c =  1.0000  135

  25   rms: 0.7529E-01   max: 0.7459E+00   T at   80  1   RLX: 0.992
       a = 12.000      CL =  0.5393
      Cm = -0.0142     CD =  0.15437   =>   CDf =  0.00696    CDp =  0.14741

 Side 1  free  transition at x/c =  0.2433   80
 Side 2 forced transition at x/c =  1.0000  134

  26   rms: 0.1925E-01   max: -.2358E+00   D at   80  1
       a = 12.000      CL =  0.5352
      Cm = -0.0134     CD =  0.14302   =>   CDf =  0.00705    CDp =  0.13597

 Side 1  free  transition at x/c =  0.2457   80
 Side 2 forced transition at x/c =  1.0000  134

  27   rms: 0.8012E-02   max: 0.8308E-01   T at   80  1
       a = 12.000      CL =  0.5393
      Cm = -0.0137     CD =  0.14479   =>   CDf =  0.00702    CDp =  0.13777

 Side 1  free  transition at x/c =  0.2448   80
 Side 2 forced transition at x/c =  1.0000  134

  28   rms: 0.2217E-02   max: -.3845E-01   T at   80  1
       a = 12.000      CL =  0.5374
      Cm = -0.0133     CD =  0.14505   =>   CDf =  0.00700    CDp =  0.13805

 Side 1  free  transition at x/c =  0.2452   80
 Side 2 forced transition at x/c =  1.0000  134

  29   rms: 0.8363E-03   max: 0.6812E-02   T at   80  1
       a = 12.000      CL =  0.5381
      Cm = -0.0134     CD =  0.14502   =>   CDf =  0.00700    CDp =  0.13802

 Side 1  free  transition at x/c =  0.2451   80
 Side 2 forced transition at x/c =  1.0000  134

  30   rms: 0.1141E-03   max: -.1412E-02   D at  170  2
       a = 12.000      CL =  0.5380
      Cm = -0.0134     CD =  0.14509   =>   CDf =  0.00700    CDp =  0.13810

 Side 1  free  transition at x/c =  0.2451   80
 Side 2 forced transition at x/c =  1.0000  134

  31   rms: 0.1031E-04   max: -.1546E-03   T at   80  1
       a = 12.000      CL =  0.5380
      Cm = -0.0134     CD =  0.14510   =>   CDf =  0.00700    CDp =  0.13810
 plradd ia,ip,cpol           12         167  3.69658368E-03

 Point added to stored polar  1
 Save file unspecified or not available
 Dump file unspecified or not available

.OPERva   c>  
.OPERva   c>  
.OPERva   c>   Calculating wake trajectory ...
 Array size (IWX) too small.  Last wake point index reduced.
 Calculating source influence matrix ...

 Solving BL system ...

 Side 1  free  transition at x/c =  0.2451   80
 Side 2 forced transition at x/c =  1.0000  134

   1   rms: 0.1766E+00   max: 0.3125E+01   T at   80  1   RLX: 0.360
       a = 13.000      CL =  0.5010
      Cm = -0.0144     CD =  0.15241   =>   CDf =  0.00700    CDp =  0.14541

 Side 1  free  transition at x/c =  0.2343   79
 Side 2 forced transition at x/c =  1.0000  134

   2   rms: 0.6089E-01   max: 0.1336E+01   T at   79  1
       a = 13.000      CL =  0.5146
      Cm = -0.0145     CD =  0.15232   =>   CDf =  0.00704    CDp =  0.14528

 Side 1  free  transition at x/c =  0.2186   77
 Side 2 forced transition at x/c =  1.0000  134

   3   rms: 0.3813E-01   max: -.4653E+00   D at   78  1
       a = 13.000      CL =  0.5135
      Cm = -0.0139     CD =  0.15125   =>   CDf =  0.00702    CDp =  0.14423

 Side 1  free  transition at x/c =  0.2211   77
 Side 2 forced transition at x/c =  1.0000  134

   4   rms: 0.3041E-01   max: 0.1676E+00   T at   77  1
       a = 13.000      CL =  0.5341
      Cm = -0.0149     CD =  0.15618   =>   CDf =  0.00695    CDp =  0.14923

 Side 1  free  transition at x/c =  0.2192   78
 Side 2 forced transition at x/c =  1.0000  133

   5   rms: 0.4925E-02   max: -.4042E-01   T at    2  1
       a = 13.000      CL =  0.5329
      Cm = -0.0144     CD =  0.15749   =>   CDf =  0.00699    CDp =  0.15051

 Side 1  free  transition at x/c =  0.2197   78
 Side 2 forced transition at x/c =  1.0000  133

   6   rms: 0.2986E-02   max: -.2741E-01   T at    2  1
       a = 13.000      CL =  0.5346
      Cm = -0.0145     CD =  0.15796   =>   CDf =  0.00698    CDp =  0.15098

 Side 1  free  transition at x/c =  0.2195   78
 Side 2 forced transition at x/c =  1.0000  133

   7   rms: 0.5083E-03   max: 0.7227E-02   D at    4  1
       a = 13.000      CL =  0.5343
      Cm = -0.0144     CD =  0.15821   =>   CDf =  0.00697    CDp =  0.15123

 Side 1  free  transition at x/c =  0.2196   78
 Side 2 forced transition at x/c =  1.0000  133

   8   rms: 0.4449E-04   max: 0.2187E-03   T at   78  1
       a = 13.000      CL =  0.5343
      Cm = -0.0144     CD =  0.15820   =>   CDf =  0.00697    CDp =  0.15123
 plradd ia,ip,cpol           13         168  3.00672138E-03

 Point added to stored polar  1
 Save file unspecified or not available
 Dump file unspecified or not available

.OPERva   c>  
.OPERva   c>  
.OPERva   c>   Calculating wake trajectory ...
 Array size (IWX) too small.  Last wake point index reduced.
 Calculating source influence matrix ...

 Solving BL system ...

 Side 1  free  transition at x/c =  0.2196   78
 Side 2 forced transition at x/c =  1.0000  133
 idif Ue xi dudx           1  5.27056046E-02  1.72376633E-03   30.575840    
 Uenew xinew           2  2.26714276E-03  7.41481781E-05

   1   rms: 0.1411E+00   max: 0.3008E+01   T at   78  1   RLX: 0.398
       a = 14.000      CL =  0.5079
      Cm = -0.0154     CD =  0.16519   =>   CDf =  0.00703    CDp =  0.15816

 Side 1  free  transition at x/c =  0.2089   76
 Side 2 forced transition at x/c =  1.0000  134

   2   rms: 0.6187E-01   max: 0.1228E+01   T at   76  1
       a = 14.000      CL =  0.5141
      Cm = -0.0149     CD =  0.16414   =>   CDf =  0.00692    CDp =  0.15722

 Side 1  free  transition at x/c =  0.1966   75
 Side 2 forced transition at x/c =  1.0000  133

   3   rms: 0.4234E-01   max: 0.5002E+00   T at   76  1
       a = 14.000      CL =  0.5238
      Cm = -0.0141     CD =  0.16321   =>   CDf =  0.00695    CDp =  0.15625

 Side 1  free  transition at x/c =  0.1988   76
 Side 2 forced transition at x/c =  1.0000  133

   4   rms: 0.6361E-01   max: 0.4441E+00   T at   76  1
       a = 14.000      CL =  0.5692
      Cm = -0.0156     CD =  0.17401   =>   CDf =  0.00685    CDp =  0.16715

 Side 1  free  transition at x/c =  0.1957   76
 Side 2 forced transition at x/c =  1.0000  132
 idif Ue xi dudx           1  4.93528992E-02  1.84798241E-03   26.706369    
 Uenew xinew           2  3.24413669E-03  1.21474266E-04

   5   rms: 0.4233E-01   max: 0.1532E+00   D at   77  1
       a = 14.000      CL =  0.5405
      Cm = -0.0149     CD =  0.17623   =>   CDf =  0.00695    CDp =  0.16928

 Side 1  free  transition at x/c =  0.1967   75
 Side 2 forced transition at x/c =  1.0000  133

   6   rms: 0.4962E-02   max: 0.4547E-01   D at  169  2
       a = 14.000      CL =  0.5419
      Cm = -0.0150     CD =  0.17146   =>   CDf =  0.00690    CDp =  0.16456

 Side 1  free  transition at x/c =  0.1967   75
 Side 2 forced transition at x/c =  1.0000  133

   7   rms: 0.1824E-02   max: 0.2928E-01   D at    4  2
       a = 14.000      CL =  0.5424
      Cm = -0.0151     CD =  0.17094   =>   CDf =  0.00691    CDp =  0.16403

 Side 1  free  transition at x/c =  0.1967   75
 Side 2 forced transition at x/c =  1.0000  133

   8   rms: 0.1209E-03   max: -.6393E-03   T at   75  1
       a = 14.000      CL =  0.5424
      Cm = -0.0151     CD =  0.17100   =>   CDf =  0.00691    CDp =  0.16409

 Side 1  free  transition at x/c =  0.1967   75
 Side 2 forced transition at x/c =  1.0000  133

   9   rms: 0.9928E-05   max: -.1083E-03   D at    3  2
       a = 14.000      CL =  0.5424
      Cm = -0.0151     CD =  0.17099   =>   CDf =  0.00691    CDp =  0.16408
 plradd ia,ip,cpol           14         168  2.38920259E-03

 Point added to stored polar  1
 Save file unspecified or not available
 Dump file unspecified or not available

.OPERva   c>  
.OPERva   c>  
.OPERva   c>   Calculating wake trajectory ...
 Array size (IWX) too small.  Last wake point index reduced.
 Calculating source influence matrix ...

 Solving BL system ...

 Side 1  free  transition at x/c =  0.1967   75
 Side 2 forced transition at x/c =  1.0000  133

   1   rms: 0.2113E+00   max: 0.1591E+01   T at   75  1   RLX: 0.366
       a = 15.000      CL =  0.4969
      Cm = -0.0171     CD =  0.17536   =>   CDf =  0.00691    CDp =  0.16845

 Side 1  free  transition at x/c =  0.1880   74
 Side 2 forced transition at x/c =  1.0000  133

   2   rms: 0.6964E-01   max: 0.6672E+00   T at   74  1
       a = 15.000      CL =  0.4826
      Cm = -0.0164     CD =  0.16471   =>   CDf =  0.00694    CDp =  0.15777

 Side 1  free  transition at x/c =  0.1774   73
 Side 2 forced transition at x/c =  1.0000  133

   3   rms: 0.6166E-01   max: -.3461E+00   D at   75  1
       a = 15.000      CL =  0.4852
      Cm = -0.0146     CD =  0.15513   =>   CDf =  0.00691    CDp =  0.14822

 Side 1  free  transition at x/c =  0.1803   73
 Side 2 forced transition at x/c =  1.0000  133

   4   rms: 0.4606E-01   max: 0.1677E+00   T at   73  1
       a = 15.000      CL =  0.5127
      Cm = -0.0156     CD =  0.16938   =>   CDf =  0.00682    CDp =  0.16257

 Side 1  free  transition at x/c =  0.1786   74
 Side 2 forced transition at x/c =  1.0000  132

   5   rms: 0.1249E-01   max: -.9732E-01   D at  167  2
       a = 15.000      CL =  0.5215
      Cm = -0.0165     CD =  0.17732   =>   CDf =  0.00685    CDp =  0.17048

 Side 1  free  transition at x/c =  0.1780   74
 Side 2 forced transition at x/c =  1.0000  132

   6   rms: 0.3601E-02   max: 0.2734E-01   T at   74  1
       a = 15.000      CL =  0.5242
      Cm = -0.0168     CD =  0.17870   =>   CDf =  0.00685    CDp =  0.17184

 Side 1  free  transition at x/c =  0.1778   74
 Side 2 forced transition at x/c =  1.0000  132

   7   rms: 0.2656E-03   max: -.2609E-02   D at  166  2
       a = 15.000      CL =  0.5244
      Cm = -0.0168     CD =  0.17905   =>   CDf =  0.00686    CDp =  0.17219

 Side 1  free  transition at x/c =  0.1778   74
 Side 2 forced transition at x/c =  1.0000  132

   8   rms: 0.1879E-04   max: -.1629E-03   D at  166  2
       a = 15.000      CL =  0.5244
      Cm = -0.0168     CD =  0.17907   =>   CDf =  0.00686    CDp =  0.17222
 plradd ia,ip,cpol           15         169  1.84397365E-03

 Point added to stored polar  1
 Save file unspecified or not available
 Dump file unspecified or not available

.OPERva   c>  
.OPERva   c>  
.OPERva   c>  
        airfoil                    Re           Mach       Ncrit  XtripT  XtripB     file
       ------------------------  ------------  ----------  -----  ------  ------    -------------------
 >  1  NACA 0012                 6.000e4       0.000        9.00   1.000   1.000    

Enter polar output filename   s>  
.OPERva   c>  
 ==============================================================
 Polar  1
  
       XFOIL         Version 6.99
  
 Calculated polar for: NACA 0012                                       
  
 1 1 Reynolds number fixed          Mach number fixed         
  
 xtrf =   1.000 (top)        1.000 (bottom)  
 Mach =   0.000     Re =     0.060 e 6     Ncrit =   9.000
  
   alpha    CL        CD       CDp       CM     Top_Xtr  Bot_Xtr
  ------ -------- --------- --------- -------- -------- --------
   0.000  -0.0000   0.01958   0.01070   0.0000   1.0000   1.0000
   1.000  -0.0034   0.02070   0.01174   0.0103   0.9917   1.0000
   2.000   0.3176   0.02123   0.01286  -0.0303   0.8940   1.0000
   3.000   0.4633   0.01980   0.01165  -0.0300   0.7618   1.0000
   4.000   0.5428   0.02000   0.01148  -0.0185   0.6127   1.0000
   5.000   0.6175   0.02158   0.01233  -0.0085   0.4438   1.0000
   6.000   0.6897   0.02493   0.01481  -0.0002   0.2859   1.0000
   7.000   0.7699   0.03005   0.01948   0.0057   0.1962   1.0000
   8.000   0.8469   0.03734   0.02735   0.0112   0.1525   1.0000
   9.000   0.9005   0.04790   0.03902   0.0176   0.1317   1.0000
  10.000   0.8599   0.06640   0.05919   0.0250   0.1294   1.0000
  12.000   0.5380   0.14510   0.13810  -0.0134   0.2451   1.0000
  13.000   0.5343   0.15820   0.15123  -0.0144   0.2196   1.0000
  14.000   0.5424   0.17099   0.16408  -0.0151   0.1967   1.0000
  15.000   0.5244   0.17907   0.17222  -0.0168   0.1778   1.0000

.OPERva   c>  
 XFOIL   c>  