
 ===================================================
  XFOIL Version 6.99
  Copyright (C) 2000   Mark Drela, Harold Youngren

  This software comes with ABSOLUTELY NO WARRANTY,
    subject to the GNU General Public License.

  Caveat computor
 ===================================================

 File  xfoil.def  not found

   QUIT    Exit program

  .OPER    Direct operating point(s)
  .MDES    Complex mapping design routine
  .QDES    Surface speed design routine
  .GDES    Geometry design routine

   SAVE f  Write airfoil to labeled coordinate file
   PSAV f  Write airfoil to plain coordinate file
   ISAV f  Write airfoil to ISES coordinate file
   MSAV f  Write airfoil to MSES coordinate file
   REVE    Reverse written-airfoil node ordering

   LOAD f  Read buffer airfoil from coordinate file
   NACA i  Set NACA 4,5-digit airfoil and buffer airfoil
   INTE    Set buffer airfoil by interpolating two airfoils
   NORM    Buffer airfoil normalization toggle
   XYCM rr Change CM reference location, currently  0.25000 0.00000

   BEND    Display structural properties of current airfoil

   PCOP    Set current-airfoil panel nodes directly from buffer airfoil points
   PANE    Set current-airfoil panel nodes ( 160 ) based on curvature
  .PPAR    Show/change paneling

  .PLOP    Plotting options

   WDEF f  Write  current-settings file
   RDEF f  Reread current-settings file
   NAME s  Specify new airfoil name
   NINC    Increment name version number

   Z       Zoom    | (available in all menus)
   U       Unzoom  | 

 XFOIL   c>   Max thickness =     0.150043  at x =   0.300
 Max camber    =     0.040000  at x =   0.402

 Buffer airfoil set using 331 points

 Blunt trailing edge.  Gap =  0.00315

 Paneling parameters used...
   Number of panel nodes       160
   Panel bunching parameter    1.000
   TE/LE panel density ratio   0.150
   Refined-area/LE panel density ratio    0.200
   Top    side refined area x/c limits  1.000 1.000
   Bottom side refined area x/c limits  1.000 1.000

 XFOIL   c>  
 Blunt trailing edge.  Gap =  0.00315

 Paneling parameters used...
   Number of panel nodes       160
   Panel bunching parameter    1.000
   TE/LE panel density ratio   0.150
   Refined-area/LE panel density ratio    0.200
   Top    side refined area x/c limits  1.000 1.000
   Bottom side refined area x/c limits  1.000 1.000

 XFOIL   c>  
    Present paneling parameters...
  N  i   Number of panel nodes       160
  P  r   Panel bunching parameter    1.000
  T  r   TE/LE panel density ratio   0.150
  R  r   Refined area/LE  panel density ratio   0.200
  XT rr  Top    side refined area x/c limits    1.000 1.000
  XB rr  Bottom side refined area x/c limits    1.000 1.000
  Z oom
  U nzoom

Change what ? (<cr> if nothing else)   c>  
Enter number of panel nodes   i>  
Change what ? (<cr> if nothing else)   c>  
 Blunt trailing edge.  Gap =  0.00315

 Maximum panel corner angle =  3.127   at  i,x,y  = 163   0.0014  -0.0078

    Present paneling parameters...
  N  i   Number of panel nodes       300
  P  r   Panel bunching parameter    1.000
  T  r   TE/LE panel density ratio   0.150
  R  r   Refined area/LE  panel density ratio   0.200
  XT rr  Top    side refined area x/c limits    1.000 1.000
  XB rr  Bottom side refined area x/c limits    1.000 1.000
  Z oom
  U nzoom

Change what ? (<cr> if nothing else)   c>  
 XFOIL   c>  
.OPERi   c>   Current iteration limit:          10

Enter new iteration limit   i>  
.OPERi   c>  
 XFOIL   c>  
 XFOIL   c>  
 XFOIL   c>  
.OPERi   c>  
.OPERi   c>  
.OPERi   c>  
 M  =    0.0000
 Re =     60000

.OPERv   c>  
 Polar  1 newly created for accumulation
 Airfoil archived with polar: NACA 4415                                       

Enter  polar save filename  OR  <return> for no file   s>  
 Polar save file will NOT be written

Enter  polar dump filename  OR  <return> for no file   s>  
 Polar dump file will NOT be written

 Polar accumulation enabled

.OPERva   c>   Calculating unit vorticity distributions ...
 Calculating wake trajectory ...
 Array size (IWX) too small.  Last wake point index reduced.
 Calculating source influence matrix ...

 Solving BL system ...

 Initializing BL ...
    side            1  ...
 MRCHUE: Inverse mode at  95     Hk =   3.803
 MRCHUE: Inverse mode at  96     Hk =   3.961
 MRCHUE: Inverse mode at  97     Hk =   4.117
 MRCHUE: Inverse mode at  98     Hk =   4.270
 MRCHUE: Inverse mode at  99     Hk =   4.422
 MRCHUE: Inverse mode at 100     Hk =   4.572
 MRCHUE: Inverse mode at 101     Hk =   4.720
 MRCHUE: Inverse mode at 102     Hk =   4.866
 MRCHUE: Inverse mode at 103     Hk =   5.011
 MRCHUE: Inverse mode at 104     Hk =   5.154
 MRCHUE: Inverse mode at 105     Hk =   5.296
 MRCHUE: Inverse mode at 106     Hk =   5.436
 MRCHUE: Inverse mode at 107     Hk =   5.575
 MRCHUE: Inverse mode at 108     Hk =   5.713
 MRCHUE: Inverse mode at 109     Hk =   5.849
 MRCHUE: Inverse mode at 110     Hk =   5.985
 MRCHUE: Inverse mode at 111     Hk =   6.119
 MRCHUE: Inverse mode at 112     Hk =   6.253
 MRCHUE: Inverse mode at 113     Hk =   6.385
 MRCHUE: Inverse mode at 114     Hk =   6.517
 MRCHUE: Inverse mode at 115     Hk =   6.647
 MRCHUE: Inverse mode at 116     Hk =   6.777
 MRCHUE: Inverse mode at 117     Hk =   6.906
 MRCHUE: Inverse mode at 118     Hk =   7.034
 MRCHUE: Inverse mode at 119     Hk =   7.161
 MRCHUE: Inverse mode at 120     Hk =   7.288
 MRCHUE: Inverse mode at 121     Hk =   7.413
 MRCHUE: Inverse mode at 122     Hk =   7.538
 MRCHUE: Inverse mode at 123     Hk =   7.663
 MRCHUE: Inverse mode at 124     Hk =   7.786
 MRCHUE: Inverse mode at 125     Hk =   7.909
 MRCHUE: Inverse mode at 126     Hk =   8.032
 MRCHUE: Inverse mode at 127     Hk =   8.153
 MRCHUE: Inverse mode at 128     Hk =   8.274
 MRCHUE: Inverse mode at 129     Hk =   8.395
 MRCHUE: Inverse mode at 130     Hk =   8.514
 MRCHUE: Inverse mode at 131     Hk =   8.633
 MRCHUE: Inverse mode at 132     Hk =   8.752
 MRCHUE: Inverse mode at 133     Hk =   8.869
 MRCHUE: Inverse mode at 134     Hk =   8.986
 MRCHUE: Inverse mode at 135     Hk =   9.102
 MRCHUE: Inverse mode at 136     Hk =   9.218
 MRCHUE: Inverse mode at 137     Hk =   9.332
 MRCHUE: Inverse mode at 138     Hk =   9.445
 MRCHUE: Inverse mode at 139     Hk =   9.557
 MRCHUE: Inverse mode at 140     Hk =   9.668
 MRCHUE: Inverse mode at 141     Hk =   9.474
 MRCHUE: Inverse mode at 142     Hk =   8.975
 MRCHUE: Inverse mode at 143     Hk =   8.548
 MRCHUE: Inverse mode at 144     Hk =   8.177
 MRCHUE: Inverse mode at 145     Hk =   7.850
 MRCHUE: Inverse mode at 146     Hk =   7.562
 MRCHUE: Inverse mode at 147     Hk =   7.305
 MRCHUE: Inverse mode at 148     Hk =   7.076
 MRCHUE: Inverse mode at 149     Hk =   6.873
 MRCHUE: Inverse mode at 150     Hk =   6.691
 MRCHUE: Inverse mode at 151     Hk =   6.528
 MRCHUE: Inverse mode at 152     Hk =   6.383
 MRCHUE: Inverse mode at 153     Hk =   6.294
    side            2  ...
 MRCHUE: Inverse mode at  68     Hk =   3.800
 MRCHUE: Inverse mode at  69     Hk =   4.000
 MRCHUE: Inverse mode at  70     Hk =   4.196
 MRCHUE: Inverse mode at  71     Hk =   4.389
 MRCHUE: Inverse mode at  72     Hk =   4.579
 MRCHUE: Inverse mode at  73     Hk =   4.766
 MRCHUE: Inverse mode at  74     Hk =   4.951
 MRCHUE: Inverse mode at  75     Hk =   5.133
 MRCHUE: Inverse mode at  76     Hk =   5.312
 MRCHUE: Inverse mode at  77     Hk =   5.489
 MRCHUE: Inverse mode at  78     Hk =   5.664
 MRCHUE: Inverse mode at  79     Hk =   5.837
 MRCHUE: Inverse mode at  80     Hk =   6.007
 MRCHUE: Inverse mode at  81     Hk =   6.175
 MRCHUE: Inverse mode at  82     Hk =   6.341
 MRCHUE: Inverse mode at  83     Hk =   6.504
 MRCHUE: Inverse mode at  84     Hk =   6.665
 MRCHUE: Inverse mode at  85     Hk =   6.824
 MRCHUE: Inverse mode at  86     Hk =   6.981
 MRCHUE: Inverse mode at  87     Hk =   7.135
 MRCHUE: Inverse mode at  88     Hk =   7.288
 MRCHUE: Inverse mode at  89     Hk =   7.439
 MRCHUE: Inverse mode at  90     Hk =   7.588
 MRCHUE: Inverse mode at  91     Hk =   7.737
 MRCHUE: Inverse mode at  92     Hk =   7.883
 MRCHUE: Inverse mode at  93     Hk =   8.029
 MRCHUE: Inverse mode at  94     Hk =   8.174
 MRCHUE: Inverse mode at  95     Hk =   8.317
 MRCHUE: Inverse mode at  96     Hk =   8.460
 MRCHUE: Inverse mode at  97     Hk =   8.601
 MRCHUE: Inverse mode at  98     Hk =   8.742
 MRCHUE: Inverse mode at  99     Hk =   8.882
 MRCHUE: Inverse mode at 100     Hk =   9.021
 MRCHUE: Inverse mode at 101     Hk =   9.159
 MRCHUE: Inverse mode at 102     Hk =   9.297
 MRCHUE: Inverse mode at 103     Hk =   9.433
 MRCHUE: Inverse mode at 104     Hk =   9.569
 MRCHUE: Inverse mode at 105     Hk =   9.704
 MRCHUE: Inverse mode at 106     Hk =   9.277
 MRCHUE: Inverse mode at 107     Hk =   8.688
 MRCHUE: Inverse mode at 108     Hk =   8.185
 MRCHUE: Inverse mode at 109     Hk =   7.745
 MRCHUE: Inverse mode at 110     Hk =   7.353
 MRCHUE: Inverse mode at 111     Hk =   6.999
 MRCHUE: Inverse mode at 112     Hk =   6.676
 MRCHUE: Inverse mode at 113     Hk =   6.379
 MRCHUE: Inverse mode at 114     Hk =   6.104
 MRCHUE: Inverse mode at 115     Hk =   5.847
 MRCHUE: Inverse mode at 116     Hk =   5.607
 MRCHUE: Inverse mode at 117     Hk =   5.381
 MRCHUE: Inverse mode at 118     Hk =   5.168
 MRCHUE: Inverse mode at 119     Hk =   4.966
 MRCHUE: Inverse mode at 120     Hk =   4.774
 MRCHUE: Inverse mode at 121     Hk =   4.591
 MRCHUE: Inverse mode at 122     Hk =   4.417
 MRCHUE: Inverse mode at 123     Hk =   4.250
 MRCHUE: Inverse mode at 124     Hk =   4.091
 MRCHUE: Inverse mode at 125     Hk =   3.938
 MRCHUE: Inverse mode at 126     Hk =   3.791
 MRCHUE: Inverse mode at 127     Hk =   3.650
 MRCHUE: Inverse mode at 128     Hk =   3.514
 MRCHUE: Inverse mode at 129     Hk =   3.382
 MRCHUE: Inverse mode at 130     Hk =   3.254

 Side 1  free  transition at x/c =  0.9114  141
 Side 2  free  transition at x/c =  0.5822  106
 idif Ue xi dudx           1  0.11772251      2.31611729E-03   50.827526    
 Uenew xinew           2  5.82523160E-02  1.14607811E-03

   1   rms: 0.1062E+01   max: -.3911E+01   D at  131  2   RLX: 0.128
       a = -1.000      CL =  0.3541
      Cm = -0.1486     CD =  0.01608   =>   CDf =  0.00841    CDp =  0.00767

 Side 1  free  transition at x/c =  0.8902  138
 Side 2  free  transition at x/c =  0.5647  105
 idif Ue xi dudx           2  0.13352215      2.50864029E-03   53.224911    
 Uenew xinew           3  7.00984970E-02  1.31702423E-03

   2   rms: 0.5051E+00   max: -.2126E+01   D at  149  2   RLX: 0.235
       a = -1.000      CL =  0.2387
      Cm = -0.1219     CD =  0.01664   =>   CDf =  0.00855    CDp =  0.00810

 Side 1  free  transition at x/c =  0.8799  135
 Side 2  free  transition at x/c =  0.5568  106

   3   rms: 0.2895E+00   max: 0.1796E+01   T at    2  2   RLX: 0.405
       a = -1.000      CL =  0.1726
      Cm = -0.1023     CD =  0.01972   =>   CDf =  0.00862    CDp =  0.01110

 Side 1  free  transition at x/c =  0.8729  134
 Side 2  free  transition at x/c =  0.5780  108
 idif Ue xi dudx           1  5.93110472E-02  1.33585930E-03   44.399174    
 Uenew xinew           2  4.32421267E-03  9.73939896E-05

   4   rms: 0.1796E+00   max: 0.8127E+00   D at  167  2   RLX: 0.617
       a = -1.000      CL =  0.1225
      Cm = -0.0870     CD =  0.02608   =>   CDf =  0.00892    CDp =  0.01716

 Side 1  free  transition at x/c =  0.8590  131
 Side 2  free  transition at x/c =  0.5603  108
 idif Ue xi dudx           1  6.76873997E-02  1.52504444E-03   44.383888    
 Uenew xinew           2  1.15872286E-02  2.61068344E-04

   5   rms: 0.1552E+00   max: 0.8607E+00   T at  131  1
       a = -1.000      CL =  0.0262
      Cm = -0.0707     CD =  0.03571   =>   CDf =  0.00904    CDp =  0.02667

 Side 1  free  transition at x/c =  0.8356  128
 Side 2  free  transition at x/c =  0.4632   99

   6   rms: 0.1241E+00   max: -.8616E+00   T at   99  2   RLX: 0.580
       a = -1.000      CL =  0.0760
      Cm = -0.0786     CD =  0.03843   =>   CDf =  0.00916    CDp =  0.02927

 Side 1  free  transition at x/c =  0.8397  129
 Side 2  free  transition at x/c =  0.5185  104

   7   rms: 0.8259E-01   max: 0.8637E+00   D at  107  2   RLX: 0.714
       a = -1.000      CL =  0.1074
      Cm = -0.0822     CD =  0.03529   =>   CDf =  0.00928    CDp =  0.02601

 Side 1  free  transition at x/c =  0.8452  130
 Side 2  free  transition at x/c =  0.5316  105

   8   rms: 0.2668E-01   max: -.3363E+00   D at  109  2
       a = -1.000      CL =  0.1060
      Cm = -0.0827     CD =  0.03530   =>   CDf =  0.00904    CDp =  0.02626

 Side 1  free  transition at x/c =  0.8430  130
 Side 2  free  transition at x/c =  0.5362  105

   9   rms: 0.3410E-02   max: -.1834E-01   D at  107  2
       a = -1.000      CL =  0.1074
      Cm = -0.0829     CD =  0.03519   =>   CDf =  0.00899    CDp =  0.02619

 Side 1  free  transition at x/c =  0.8433  130
 Side 2  free  transition at x/c =  0.5385  106

  10   rms: 0.2601E-02   max: -.3431E-01   C at  106  2
       a = -1.000      CL =  0.1074
      Cm = -0.0829     CD =  0.03521   =>   CDf =  0.00900    CDp =  0.02621

 Side 1  free  transition at x/c =  0.8433  130
 Side 2  free  transition at x/c =  0.5383  106

  11   rms: 0.1571E-03   max: 0.1772E-02   C at  106  2
       a = -1.000      CL =  0.1074
      Cm = -0.0829     CD =  0.03521   =>   CDf =  0.00897    CDp =  0.02624

 Side 1  free  transition at x/c =  0.8433  130
 Side 2  free  transition at x/c =  0.5382  106

  12   rms: 0.2509E-05   max: 0.4331E-04   D at    3  2
       a = -1.000      CL =  0.1074
      Cm = -0.0829     CD =  0.03521   =>   CDf =  0.00897    CDp =  0.02624
 plradd ia,ip,cpol            1         148  2.31335573E-02

 Point added to stored polar  1
 Save file unspecified or not available
 Dump file unspecified or not available

.OPERva   c>  
.OPERva   c>  
.OPERva   c>   Calculating wake trajectory ...
 Array size (IWX) too small.  Last wake point index reduced.
 Calculating source influence matrix ...

 Solving BL system ...

 Side 1  free  transition at x/c =  0.8433  130
 Side 2  free  transition at x/c =  0.5382  106

   1   rms: 0.4110E+00   max: 0.3973E+01   C at  106  2   RLX: 0.225
       a = -2.000      CL =  0.0703
      Cm = -0.0819     CD =  0.03605   =>   CDf =  0.00896    CDp =  0.02709

 Side 1  free  transition at x/c =  0.8488  130
 Side 2  free  transition at x/c =  0.4755   99
 idif Ue xi dudx           1  7.05371797E-02  1.60241127E-03   44.019398    
 Uenew xinew           2  1.48977125E-02  3.38435173E-04

   2   rms: 0.1605E+00   max: -.1482E+01   T at  130  1   RLX: 0.337
       a = -2.000      CL =  0.0681
      Cm = -0.0847     CD =  0.03551   =>   CDf =  0.00928    CDp =  0.02622

 Side 1  free  transition at x/c =  0.8680  131
 Side 2  free  transition at x/c =  0.4328   96
 idif Ue xi dudx           1  5.92634194E-02  1.31869316E-03   44.941021    
 Uenew xinew           2  1.25898595E-03  2.80141830E-05

   3   rms: 0.1623E+00   max: 0.1674E+01   T at   96  2   RLX: 0.452
       a = -2.000      CL =  0.0304
      Cm = -0.0832     CD =  0.03436   =>   CDf =  0.00949    CDp =  0.02487

 Side 1  free  transition at x/c =  0.8756  131
 Side 2  free  transition at x/c =  0.3852   93

   4   rms: 0.2110E+00   max: 0.4415E+01   D at    2  2   RLX: 0.340
       a = -2.000      CL =  0.0144
      Cm = -0.0827     CD =  0.03626   =>   CDf =  0.00948    CDp =  0.02678

 Side 1  free  transition at x/c =  0.8776  131
 Side 2  free  transition at x/c =  0.3729   91

   5   rms: 0.7393E-01   max: 0.6496E+00   T at   91  2   RLX: 0.913
       a = -2.000      CL = -0.0115
      Cm = -0.0806     CD =  0.03559   =>   CDf =  0.00960    CDp =  0.02599

 Side 1  free  transition at x/c =  0.8844  132
 Side 2  free  transition at x/c =  0.3451   89
 idif Ue xi dudx           1  6.28988743E-02  1.50167942E-03   41.885689    
 Uenew xinew           2  7.64453271E-03  1.82509422E-04

   6   rms: 0.4848E-01   max: -.3766E+00   D at   94  2
       a = -2.000      CL = -0.0252
      Cm = -0.0788     CD =  0.03659   =>   CDf =  0.00985    CDp =  0.02674

 Side 1  free  transition at x/c =  0.8813  131
 Side 2  free  transition at x/c =  0.3432   90

   7   rms: 0.3105E-02   max: -.5292E-01   D at   96  2
       a = -2.000      CL = -0.0240
      Cm = -0.0790     CD =  0.03645   =>   CDf =  0.00992    CDp =  0.02653

 Side 1  free  transition at x/c =  0.8815  131
 Side 2  free  transition at x/c =  0.3434   90

   8   rms: 0.2299E-03   max: -.4054E-02   D at    3  2
       a = -2.000      CL = -0.0239
      Cm = -0.0790     CD =  0.03647   =>   CDf =  0.00992    CDp =  0.02655

 Side 1  free  transition at x/c =  0.8815  131
 Side 2  free  transition at x/c =  0.3434   90

   9   rms: 0.3757E-05   max: -.5278E-04   D at    3  2
       a = -2.000      CL = -0.0239
      Cm = -0.0790     CD =  0.03647   =>   CDf =  0.00992    CDp =  0.02655
 plradd ia,ip,cpol            2         145  1.81403961E-02

 Point added to stored polar  1
 Save file unspecified or not available
 Dump file unspecified or not available

.OPERva   c>  
.OPERva   c>  
.OPERva   c>   Calculating wake trajectory ...
 Array size (IWX) too small.  Last wake point index reduced.
 Calculating source influence matrix ...

 Solving BL system ...

 Side 1  free  transition at x/c =  0.8815  131
 Side 2  free  transition at x/c =  0.3434   90
 idif Ue xi dudx           1  8.38357657E-02  2.03633308E-03   41.169968    
 Uenew xinew           2  2.82937121E-02  6.87241554E-04

   1   rms: 0.3024E+00   max: 0.2710E+01   T at   90  2   RLX: 0.399
       a = -3.000      CL = -0.0931
      Cm = -0.0748     CD =  0.03752   =>   CDf =  0.00998    CDp =  0.02754

 MRCHDU: Convergence failed at  91  side 2    Res =  0.9119E+01
 MRCHDU: Convergence failed at  92  side 2    Res =  0.1343E+02
 MRCHDU: Convergence failed at  93  side 2    Res =  0.1845E+02
 MRCHDU: Convergence failed at  94  side 2    Res =  0.8239E+01
 MRCHDU: Convergence failed at  95  side 2    Res =  0.9632E+01
 MRCHDU: Convergence failed at  96  side 2    Res =  0.9665E+01
 MRCHDU: Convergence failed at  97  side 2    Res =  0.9790E+01
 MRCHDU: Convergence failed at  98  side 2    Res =  0.9749E+01
 MRCHDU: Convergence failed at  99  side 2    Res =  0.9798E+01
 MRCHDU: Convergence failed at 100  side 2    Res =  0.9592E+01
 MRCHDU: Convergence failed at 101  side 2    Res =  0.9381E+01
 MRCHDU: Convergence failed at 102  side 2    Res =  0.7183E+01
 MRCHDU: Convergence failed at 103  side 2    Res =  0.5638E+01
 MRCHDU: Convergence failed at 104  side 2    Res =  0.4763E+01
 MRCHDU: Convergence failed at 105  side 2    Res =  0.5295E+01
 MRCHDU: Convergence failed at 106  side 2    Res =  0.5526E+01
 MRCHDU: Convergence failed at 107  side 2    Res =  0.5759E+01
 MRCHDU: Convergence failed at 108  side 2    Res =  0.6147E+01
 MRCHDU: Convergence failed at 109  side 2    Res =  0.6393E+01
 MRCHDU: Convergence failed at 110  side 2    Res =  0.6625E+01
 MRCHDU: Convergence failed at 111  side 2    Res =  0.6863E+01
 MRCHDU: Convergence failed at 112  side 2    Res =  0.7631E+01
 MRCHDU: Convergence failed at 113  side 2    Res =  0.7766E+01
 MRCHDU: Convergence failed at 114  side 2    Res =  0.8148E+01
 MRCHDU: Convergence failed at 115  side 2    Res =  0.8389E+01
 MRCHDU: Convergence failed at 116  side 2    Res =  0.8632E+01
 MRCHDU: Convergence failed at 117  side 2    Res =  0.8884E+01
 MRCHDU: Convergence failed at 118  side 2    Res =  0.9152E+01
 MRCHDU: Convergence failed at 119  side 2    Res =  0.9396E+01
 MRCHDU: Convergence failed at 120  side 2    Res =  0.9806E+01
 MRCHDU: Convergence failed at 121  side 2    Res =  0.1010E+02
 MRCHDU: Convergence failed at 122  side 2    Res =  0.1040E+02
 MRCHDU: Convergence failed at 123  side 2    Res =  0.1086E+02
 MRCHDU: Convergence failed at 124  side 2    Res =  0.1118E+02
 MRCHDU: Convergence failed at 125  side 2    Res =  0.1173E+02
 MRCHDU: Convergence failed at 126  side 2    Res =  0.1206E+02
 MRCHDU: Convergence failed at 127  side 2    Res =  0.1243E+02
 MRCHDU: Convergence failed at 128  side 2    Res =  0.1280E+02
 MRCHDU: Convergence failed at 129  side 2    Res =  0.1317E+02
 MRCHDU: Convergence failed at 130  side 2    Res =  0.1374E+02
 MRCHDU: Convergence failed at 131  side 2    Res =  0.1413E+02
 MRCHDU: Convergence failed at 132  side 2    Res =  0.1454E+02
 MRCHDU: Convergence failed at 133  side 2    Res =  0.1494E+02
 MRCHDU: Convergence failed at 134  side 2    Res =  0.1535E+02
 MRCHDU: Convergence failed at 135  side 2    Res =  0.1576E+02
 MRCHDU: Convergence failed at 136  side 2    Res =  0.1616E+02
 MRCHDU: Convergence failed at 137  side 2    Res =  0.1682E+02
 MRCHDU: Convergence failed at 138  side 2    Res =  0.1723E+02
 MRCHDU: Convergence failed at 139  side 2    Res =  0.1764E+02
 MRCHDU: Convergence failed at 140  side 2    Res =  0.1805E+02
 MRCHDU: Convergence failed at 141  side 2    Res =  0.1844E+02
 MRCHDU: Convergence failed at 142  side 2    Res =  0.1882E+02
 MRCHDU: Convergence failed at 143  side 2    Res =  0.1915E+02
 MRCHDU: Convergence failed at 144  side 2    Res =  0.1941E+02
 MRCHDU: Convergence failed at 145  side 2    Res =  0.1945E+02
 MRCHDU: Convergence failed at 146  side 2    Res =  0.1987E+02
 MRCHDU: Convergence failed at 147  side 2    Res =  0.2008E+02
 MRCHDU: Convergence failed at 148  side 2    Res =  0.2033E+02
 MRCHDU: Convergence failed at 149  side 2    Res =  0.2051E+02
 MRCHDU: Convergence failed at 150  side 2    Res =  0.2077E+02
 MRCHDU: Convergence failed at 151  side 2    Res =  0.2089E+02
 MRCHDU: Convergence failed at 152  side 2    Res =  0.2093E+02
 MRCHDU: Convergence failed at 153  side 2    Res =  0.2090E+02
 MRCHDU: Convergence failed at 154  side 2    Res =  0.2081E+02
 MRCHDU: Convergence failed at 155  side 2    Res =  0.2056E+02
 MRCHDU: Convergence failed at 156  side 2    Res =  0.2022E+02
 MRCHDU: Convergence failed at 157  side 2    Res =  0.1828E+02
 Side 1  free  transition at x/c =  0.8940  131
 Side 2  free  transition at x/c =  0.3069   87

   2   rms: 0.2196E+00   max: -.1480E+01   T at  131  1   RLX: 0.338
       a = -3.000      CL = -0.2196
      Cm = -0.0082     CD =  0.03520   =>   CDf =  0.00611    CDp =  0.02910

 Side 1  free  transition at x/c =  0.9136  133
 Side 2  free  transition at x/c =  0.2957   86
 idif Ue xi dudx           1  6.95527121E-02  1.84738636E-03   37.649250    
 Uenew xinew           2  1.75665822E-02  4.66585159E-04

   3   rms: 0.1749E+00   max: 0.1199E+01   T at   86  2   RLX: 0.597
       a = -3.000      CL = -0.1694
      Cm = -0.0513     CD =  0.03582   =>   CDf =  0.01133    CDp =  0.02449

 Side 1  free  transition at x/c =  0.9209  133
 Side 2  free  transition at x/c =  0.2726   85

   4   rms: 0.1029E+00   max: -.7758E+00   D at  100  2   RLX: 0.645
       a = -3.000      CL = -0.1657
      Cm = -0.0651     CD =  0.03686   =>   CDf =  0.01005    CDp =  0.02680

 Side 1  free  transition at x/c =  0.9222  133
 Side 2  free  transition at x/c =  0.2621   84
 idif Ue xi dudx           1  5.95471300E-02  1.50084496E-03   39.675735    
 Uenew xinew           2  3.42431455E-03  8.63075256E-05

   5   rms: 0.5425E-01   max: -.5557E+00   D at  102  2   RLX: 0.900
       a = -3.000      CL = -0.1658
      Cm = -0.0711     CD =  0.03784   =>   CDf =  0.00996    CDp =  0.02788

 Side 1  free  transition at x/c =  0.9224  132
 Side 2  free  transition at x/c =  0.2536   84

   6   rms: 0.2195E-01   max: -.2591E+00   D at  103  2
       a = -3.000      CL = -0.1680
      Cm = -0.0713     CD =  0.03824   =>   CDf =  0.00986    CDp =  0.02838

 Side 1  free  transition at x/c =  0.9221  132
 Side 2  free  transition at x/c =  0.2501   83

   7   rms: 0.9586E-02   max: -.6802E-01   D at  103  2
       a = -3.000      CL = -0.1672
      Cm = -0.0715     CD =  0.03809   =>   CDf =  0.00991    CDp =  0.02818

 Side 1  free  transition at x/c =  0.9222  132
 Side 2  free  transition at x/c =  0.2510   83

   8   rms: 0.1655E-03   max: -.1855E-02   D at  103  2
       a = -3.000      CL = -0.1672
      Cm = -0.0715     CD =  0.03811   =>   CDf =  0.00997    CDp =  0.02815

 Side 1  free  transition at x/c =  0.9222  132
 Side 2  free  transition at x/c =  0.2510   84

   9   rms: 0.2731E-02   max: -.2780E-01   D at   83  2
       a = -3.000      CL = -0.1672
      Cm = -0.0715     CD =  0.03811   =>   CDf =  0.00998    CDp =  0.02813

 Side 1  free  transition at x/c =  0.9222  132
 Side 2  free  transition at x/c =  0.2510   84

  10   rms: 0.6924E-04   max: 0.4772E-03   D at   87  2
       a = -3.000      CL = -0.1672
      Cm = -0.0715     CD =  0.03811   =>   CDf =  0.00996    CDp =  0.02816
 plradd ia,ip,cpol            3         142  1.37916952E-02

 Point added to stored polar  1
 Save file unspecified or not available
 Dump file unspecified or not available

.OPERva   c>  
.OPERva   c>  
.OPERva   c>   Calculating wake trajectory ...
 Array size (IWX) too small.  Last wake point index reduced.
 Calculating source influence matrix ...

 Solving BL system ...

 Side 1  free  transition at x/c =  0.9222  132
 Side 2  free  transition at x/c =  0.2510   84

   1   rms: 0.1987E+00   max: 0.1767E+01   T at   84  2   RLX: 0.291
       a = -4.000      CL = -0.1870
      Cm = -0.0728     CD =  0.03838   =>   CDf =  0.00996    CDp =  0.02842

 Side 1  free  transition at x/c =  0.9396  134
 Side 2  free  transition at x/c =  0.2412   83
 idif Ue xi dudx           2  0.12392940      3.56376171E-03   34.774883    
 Uenew xinew           3  7.35036656E-02  2.11369991E-03

   2   rms: 0.2102E+00   max: 0.2219E+01   T at   83  2   RLX: 0.676
       a = -4.000      CL = -0.2747
      Cm = -0.0657     CD =  0.04047   =>   CDf =  0.00996    CDp =  0.03051

 MRCHDU: Convergence failed at  85  side 2    Res =  0.1645E+03
 MRCHDU: Convergence failed at  86  side 2    Res =  0.6723E+02
 MRCHDU: Convergence failed at  87  side 2    Res =  0.2483E+02
 MRCHDU: Convergence failed at  88  side 2    Res =  0.1512E+02
 MRCHDU: Convergence failed at  89  side 2    Res =  0.1296E+02
 MRCHDU: Convergence failed at  90  side 2    Res =  0.1206E+02
 MRCHDU: Convergence failed at  91  side 2    Res =  0.1603E+02
 MRCHDU: Convergence failed at  92  side 2    Res =  0.1913E+02
 MRCHDU: Convergence failed at  93  side 2    Res =  0.2228E+02
 MRCHDU: Convergence failed at  94  side 2    Res =  0.2496E+02
 MRCHDU: Convergence failed at  95  side 2    Res =  0.2738E+02
 MRCHDU: Convergence failed at  96  side 2    Res =  0.2931E+02
 MRCHDU: Convergence failed at  97  side 2    Res =  0.3117E+02
 MRCHDU: Convergence failed at  98  side 2    Res =  0.3326E+02
 MRCHDU: Convergence failed at  99  side 2    Res =  0.3604E+02
 MRCHDU: Convergence failed at 100  side 2    Res =  0.3936E+02
 MRCHDU: Convergence failed at 101  side 2    Res =  0.4322E+02
 MRCHDU: Convergence failed at 102  side 2    Res =  0.4702E+02
 MRCHDU: Convergence failed at 103  side 2    Res =  0.5078E+02
 MRCHDU: Convergence failed at 104  side 2    Res =  0.5478E+02
 MRCHDU: Convergence failed at 105  side 2    Res =  0.5879E+02
 MRCHDU: Convergence failed at 106  side 2    Res =  0.6308E+02
 MRCHDU: Convergence failed at 107  side 2    Res =  0.6739E+02
 MRCHDU: Convergence failed at 108  side 2    Res =  0.7202E+02
 MRCHDU: Convergence failed at 109  side 2    Res =  0.7742E+02
 MRCHDU: Convergence failed at 110  side 2    Res =  0.8347E+02
 MRCHDU: Convergence failed at 111  side 2    Res =  0.1130E+03
 MRCHDU: Convergence failed at 112  side 2    Res =  0.1214E+03
 MRCHDU: Convergence failed at 113  side 2    Res =  0.1283E+03
 MRCHDU: Convergence failed at 114  side 2    Res =  0.1338E+03
 MRCHDU: Convergence failed at 115  side 2    Res =  0.1385E+03
 MRCHDU: Convergence failed at 116  side 2    Res =  0.1412E+03
 MRCHDU: Convergence failed at 117  side 2    Res =  0.1430E+03
 MRCHDU: Convergence failed at 118  side 2    Res =  0.1403E+03
 MRCHDU: Convergence failed at 119  side 2    Res =  0.1418E+03
 MRCHDU: Convergence failed at 120  side 2    Res =  0.1421E+03
 MRCHDU: Convergence failed at 121  side 2    Res =  0.1415E+03
 MRCHDU: Convergence failed at 122  side 2    Res =  0.1399E+03
 MRCHDU: Convergence failed at 123  side 2    Res =  0.1382E+03
 MRCHDU: Convergence failed at 124  side 2    Res =  0.1306E+03
 MRCHDU: Convergence failed at 125  side 2    Res =  0.1284E+03
 MRCHDU: Convergence failed at 126  side 2    Res =  0.1266E+03
 MRCHDU: Convergence failed at 127  side 2    Res =  0.3014E+03
 MRCHDU: Convergence failed at 128  side 2    Res =  0.3335E+03
 MRCHDU: Convergence failed at 129  side 2    Res =  0.3531E+03
 MRCHDU: Convergence failed at 130  side 2    Res =  0.3729E+03
 MRCHDU: Convergence failed at 131  side 2    Res =  0.3867E+03
 MRCHDU: Convergence failed at 132  side 2    Res =  0.4102E+03
 MRCHDU: Convergence failed at 133  side 2    Res =  0.4197E+03
 MRCHDU: Convergence failed at 134  side 2    Res =  0.4277E+03
 MRCHDU: Convergence failed at 135  side 2    Res =  0.4448E+03
 MRCHDU: Convergence failed at 136  side 2    Res =  0.4551E+03
 MRCHDU: Convergence failed at 137  side 2    Res =  0.4701E+03
 MRCHDU: Convergence failed at 138  side 2    Res =  0.4900E+03
 MRCHDU: Convergence failed at 139  side 2    Res =  0.5006E+03
 MRCHDU: Convergence failed at 140  side 2    Res =  0.5162E+03
 MRCHDU: Convergence failed at 141  side 2    Res =  0.5059E+03
 MRCHDU: Convergence failed at 142  side 2    Res =  0.5209E+03
 MRCHDU: Convergence failed at 143  side 2    Res =  0.5409E+03
 MRCHDU: Convergence failed at 144  side 2    Res =  0.5487E+03
 MRCHDU: Convergence failed at 145  side 2    Res =  0.5534E+03
 MRCHDU: Convergence failed at 146  side 2    Res =  0.5608E+03
 MRCHDU: Convergence failed at 147  side 2    Res =  0.5720E+03
 MRCHDU: Convergence failed at 148  side 2    Res =  0.5612E+03
 MRCHDU: Convergence failed at 149  side 2    Res =  0.5341E+03
 MRCHDU: Convergence failed at 150  side 2    Res =  0.5462E+03
 MRCHDU: Convergence failed at 151  side 2    Res =  0.5369E+03
 MRCHDU: Convergence failed at 152  side 2    Res =  0.5286E+03
 MRCHDU: Convergence failed at 153  side 2    Res =  0.5181E+03
 MRCHDU: Convergence failed at 154  side 2    Res =  0.4976E+03
 MRCHDU: Convergence failed at 155  side 2    Res =  0.4960E+03
 MRCHDU: Convergence failed at 156  side 2    Res =  0.4938E+03
 MRCHDU: Convergence failed at 157  side 2    Res =  0.5141E+03
 MRCHDU: Convergence failed at 158  side 2    Res =  0.5127E+03
 MRCHDU: Convergence failed at 159  side 2    Res =  0.5218E+03
 MRCHDU: Convergence failed at 160  side 2    Res =  0.5739E+03
 MRCHDU: Convergence failed at 161  side 2    Res =  0.2352E+04
 Side 1  free  transition at x/c =  0.9556  134
 Side 2  free  transition at x/c =  0.2139   82

   3   rms: 0.4616E+00   max: 0.2152E+01   D at  171  2   RLX: 0.247
       a = -4.000      CL = -0.6298
      Cm =  0.1041     CD =  0.02930   =>   CDf =  0.00570    CDp =  0.02360

 MRCHDU: Convergence failed at 170  side 2    Res =  0.1358E+01
 MRCHDU: Convergence failed at 171  side 2    Res =  0.3210E+01
 MRCHDU: Convergence failed at 172  side 2    Res =  0.5839E+03
 MRCHDU: Convergence failed at 173  side 2    Res =  0.5161E+01
 MRCHDU: Convergence failed at 174  side 2    Res =  0.2294E+01
 MRCHDU: Convergence failed at 175  side 2    Res =  0.1763E+01
 MRCHDU: Convergence failed at 176  side 2    Res =  0.1475E+01
 Side 1  free  transition at x/c =  0.9770  138
 Side 2  free  transition at x/c =  0.2178   81
 idif Ue xi dudx           1  7.29374737E-02  2.22110748E-03   32.838337    
 Uenew xinew           2  2.40867473E-02  7.33494759E-04

   4   rms: 0.2536E+00   max: 0.1691E+01   T at   81  2   RLX: 0.569
       a = -4.000      CL = -0.3780
      Cm = -0.0255     CD =  0.06437   =>   CDf =  0.00604    CDp =  0.05833

 Side 1  free  transition at x/c =  0.9840  138
 Side 2  free  transition at x/c =  0.2020   80
 idif Ue xi dudx           1  6.05918095E-02  1.90436840E-03   31.817272    
 Uenew xinew           2  1.19818170E-02  3.76582146E-04

   5   rms: 0.2388E+00   max: 0.1356E+01   T at   80  2   RLX: 0.557
       a = -4.000      CL = -0.3980
      Cm = -0.0375     CD =  0.06306   =>   CDf =  0.00588    CDp =  0.05718

 Side 1  free  transition at x/c =  0.9781  136
 Side 2  free  transition at x/c =  0.1926   80
 idif Ue xi dudx           1  5.75535297E-02  1.86359882E-03   30.883003    
 Uenew xinew           2  9.06027202E-03  2.93374062E-04

   6   rms: 0.2573E+00   max: 0.1540E+01   T at   80  2   RLX: 0.525
       a = -4.000      CL = -0.4605
      Cm = -0.0386     CD =  0.06460   =>   CDf =  0.00570    CDp =  0.05890

 Side 1  free  transition at x/c =  0.9660  134
 Side 2  free  transition at x/c =  0.1846   81

   7   rms: 0.1874E+00   max: -.1392E+01   T at   81  2   RLX: 0.359
       a = -4.000      CL = -0.4312
      Cm = -0.0358     CD =  0.07001   =>   CDf =  0.00571    CDp =  0.06430

 Side 1  free  transition at x/c =  0.9639  134
 Side 2  free  transition at x/c =  0.1901   80
 idif Ue xi dudx           1  5.33351749E-02  1.71053410E-03   31.180422    
 Uenew xinew           2  4.37490409E-03  1.40309334E-04

   8   rms: 0.2740E+00   max: 0.1265E+01   T at   80  2   RLX: 0.518
       a = -4.000      CL = -0.4455
      Cm = -0.0412     CD =  0.05652   =>   CDf =  0.00568    CDp =  0.05084

 Side 1  free  transition at x/c =  0.9629  133
 Side 2  free  transition at x/c =  0.1836   80

   9   rms: 0.2603E+00   max: -.8202E+00   D at  163  2   RLX: 0.610
       a = -4.000      CL = -0.3918
      Cm = -0.0530     CD =  0.04604   =>   CDf =  0.00636    CDp =  0.03969

 Side 1  free  transition at x/c =  0.9637  134
 Side 2  free  transition at x/c =  0.1867   80

  10   rms: 0.8150E-01   max: -.5197E+00   D at    2  1   RLX: 0.962
       a = -4.000      CL = -0.3366
      Cm = -0.0571     CD =  0.04341   =>   CDf =  0.00796    CDp =  0.03545

 Side 1  free  transition at x/c =  0.9611  134
 Side 2  free  transition at x/c =  0.1933   80

  11   rms: 0.1007E+00   max: -.3880E+00   D at   90  2
       a = -4.000      CL = -0.3270
      Cm = -0.0600     CD =  0.04082   =>   CDf =  0.00841    CDp =  0.03241

 Side 1  free  transition at x/c =  0.9622  134
 Side 2  free  transition at x/c =  0.1969   81

  12   rms: 0.6115E-01   max: 0.3226E+00   D at   86  2
       a = -4.000      CL = -0.3264
      Cm = -0.0598     CD =  0.04190   =>   CDf =  0.00945    CDp =  0.03245

 Side 1  free  transition at x/c =  0.9622  134
 Side 2  free  transition at x/c =  0.1957   81

  13   rms: 0.5149E-02   max: 0.3531E-01   D at   92  2
       a = -4.000      CL = -0.3269
      Cm = -0.0596     CD =  0.04175   =>   CDf =  0.00910    CDp =  0.03265

 Side 1  free  transition at x/c =  0.9622  134
 Side 2  free  transition at x/c =  0.1955   81

  14   rms: 0.7212E-04   max: 0.6312E-03   D at   86  2
       a = -4.000      CL = -0.3269
      Cm = -0.0596     CD =  0.04173   =>   CDf =  0.00906    CDp =  0.03267
 plradd ia,ip,cpol            4         139  1.00413347E-02

 Point added to stored polar  1
 Save file unspecified or not available
 Dump file unspecified or not available

.OPERva   c>  
.OPERva   c>  
.OPERva   c>   Calculating wake trajectory ...
 Array size (IWX) too small.  Last wake point index reduced.
 Calculating source influence matrix ...

 Solving BL system ...

 Side 1  free  transition at x/c =  0.9622  134
 Side 2  free  transition at x/c =  0.1955   81
 idif Ue xi dudx           1  5.96409589E-02  1.91092491E-03   31.210520    
 Uenew xinew           2  1.06334286E-02  3.40700150E-04

   1   rms: 0.2058E+00   max: 0.1852E+01   T at   81  2   RLX: 0.332
       a = -5.000      CL = -0.3711
      Cm = -0.0571     CD =  0.04228   =>   CDf =  0.00910    CDp =  0.03318

 Side 1  free  transition at x/c =  0.9782  135
 Side 2  free  transition at x/c =  0.1860   81
 idif Ue xi dudx           1  6.08909950E-02  2.09832191E-03   29.018900    
 Uenew xinew           2  1.40240928E-02  4.83274460E-04

   2   rms: 0.1975E+00   max: 0.1499E+01   T at   81  2   RLX: 0.593
       a = -5.000      CL = -0.4386
      Cm = -0.0502     CD =  0.04676   =>   CDf =  0.00889    CDp =  0.03787

 Side 1  free  transition at x/c =  0.9934  137
 Side 2  free  transition at x/c =  0.1753   80

   3   rms: 0.1817E+00   max: 0.7199E+00   D at   85  2
       a = -5.000      CL = -0.5038
      Cm = -0.0375     CD =  0.05641   =>   CDf =  0.00815    CDp =  0.04826

 Side 1  free  transition at x/c =  0.9976  138
 Side 2  free  transition at x/c =  0.1755   80

   4   rms: 0.3989E-01   max: 0.3129E+00   T at   80  2
       a = -5.000      CL = -0.5003
      Cm = -0.0353     CD =  0.05682   =>   CDf =  0.00651    CDp =  0.05031

 Side 1  free  transition at x/c =  0.9979  138
 Side 2  free  transition at x/c =  0.1732   80

   5   rms: 0.4005E-01   max: 0.1631E+00   T at   80  2
       a = -5.000      CL = -0.5004
      Cm = -0.0372     CD =  0.05490   =>   CDf =  0.00655    CDp =  0.04835

 Side 1  free  transition at x/c =  0.9983  138
 Side 2  free  transition at x/c =  0.1709   80

   6   rms: 0.1399E-01   max: 0.6789E-01   T at   80  2
       a = -5.000      CL = -0.5009
      Cm = -0.0380     CD =  0.05431   =>   CDf =  0.00685    CDp =  0.04746

 Side 1  free  transition at x/c =  0.9984  138
 Side 2  free  transition at x/c =  0.1699   80

   7   rms: 0.4608E-02   max: 0.2320E-01   T at   80  2
       a = -5.000      CL = -0.5012
      Cm = -0.0383     CD =  0.05407   =>   CDf =  0.00695    CDp =  0.04712

 Side 1  free  transition at x/c =  0.9985  138
 Side 2  free  transition at x/c =  0.1695   80

   8   rms: 0.1257E-02   max: 0.6683E-02   T at   80  2
       a = -5.000      CL = -0.5013
      Cm = -0.0384     CD =  0.05400   =>   CDf =  0.00699    CDp =  0.04701

 Side 1  free  transition at x/c =  0.9985  138
 Side 2  free  transition at x/c =  0.1694   80

   9   rms: 0.2842E-03   max: 0.1589E-02   T at   80  2
       a = -5.000      CL = -0.5014
      Cm = -0.0384     CD =  0.05398   =>   CDf =  0.00700    CDp =  0.04699

 Side 1  free  transition at x/c =  0.9985  138
 Side 2  free  transition at x/c =  0.1694   80

  10   rms: 0.5749E-04   max: 0.3291E-03   T at   80  2
       a = -5.000      CL = -0.5014
      Cm = -0.0384     CD =  0.05398   =>   CDf =  0.00700    CDp =  0.04698
 plradd ia,ip,cpol            5         137  7.86445290E-03

 Point added to stored polar  1
 Save file unspecified or not available
 Dump file unspecified or not available

.OPERva   c>  
.OPERva   c>  
.OPERva   c>   Calculating wake trajectory ...
 Array size (IWX) too small.  Last wake point index reduced.
 Calculating source influence matrix ...

 Solving BL system ...

 Side 1  free  transition at x/c =  0.9985  138
 Side 2  free  transition at x/c =  0.1694   80
 idif Ue xi dudx           2  9.22619775E-02  3.43549252E-03   26.855532    
 Uenew xinew           3  4.76084501E-02  1.77276134E-03

   1   rms: 0.2488E+00   max: -.1315E+01   T at  138  1   RLX: 0.380
       a = -6.000      CL = -0.5704
      Cm = -0.0284     CD =  0.06106   =>   CDf =  0.00703    CDp =  0.05403

 Side 1 forced transition at x/c =  1.0000  136
 Side 2  free  transition at x/c =  0.1701   82
 idif Ue xi dudx           1  4.95650694E-02  1.95825100E-03   25.310886    
 Uenew xinew           2  4.82766842E-03  1.90734863E-04

   2   rms: 0.2180E+00   max: 0.1955E+01   T at   82  2   RLX: 0.739
       a = -6.000      CL = -0.5566
      Cm = -0.0453     CD =  0.04824   =>   CDf =  0.00659    CDp =  0.04165

 MRCHDU: Convergence failed at  92  side 2    Res =  0.8248E+02
 MRCHDU: Convergence failed at  93  side 2    Res =  0.3315E+01
 MRCHDU: Convergence failed at  94  side 2    Res =  0.1934E+01
 MRCHDU: Convergence failed at  95  side 2    Res =  0.1757E+01
 MRCHDU: Convergence failed at  96  side 2    Res =  0.1614E+01
 MRCHDU: Convergence failed at  97  side 2    Res =  0.1578E+01
 MRCHDU: Convergence failed at  98  side 2    Res =  0.2068E+01
 MRCHDU: Convergence failed at  99  side 2    Res =  0.2432E+01
 MRCHDU: Convergence failed at 100  side 2    Res =  0.2864E+01
 MRCHDU: Convergence failed at 101  side 2    Res =  0.3373E+01
 MRCHDU: Convergence failed at 102  side 2    Res =  0.3989E+01
 MRCHDU: Convergence failed at 103  side 2    Res =  0.4750E+01
 MRCHDU: Convergence failed at 104  side 2    Res =  0.5691E+01
 MRCHDU: Convergence failed at 105  side 2    Res =  0.6914E+01
 MRCHDU: Convergence failed at 106  side 2    Res =  0.8510E+01
 MRCHDU: Convergence failed at 107  side 2    Res =  0.1061E+02
 MRCHDU: Convergence failed at 108  side 2    Res =  0.1348E+02
 MRCHDU: Convergence failed at 109  side 2    Res =  0.1724E+02
 MRCHDU: Convergence failed at 110  side 2    Res =  0.2238E+02
 MRCHDU: Convergence failed at 111  side 2    Res =  0.2968E+02
 MRCHDU: Convergence failed at 112  side 2    Res =  0.4169E+02
 MRCHDU: Convergence failed at 113  side 2    Res =  0.5970E+02
 MRCHDU: Convergence failed at 114  side 2    Res =  0.8922E+02
 MRCHDU: Convergence failed at 115  side 2    Res =  0.1648E+03
 MRCHDU: Convergence failed at 116  side 2    Res =  0.8256E+03
 MRCHDU: Convergence failed at 117  side 2    Res =  0.5474E+03
 MRCHDU: Convergence failed at 118  side 2    Res =  0.2225E+03
 MRCHDU: Convergence failed at 119  side 2    Res =  0.1786E+03
 MRCHDU: Convergence failed at 120  side 2    Res =  0.1443E+03
 MRCHDU: Convergence failed at 121  side 2    Res =  0.1278E+03
 MRCHDU: Convergence failed at 122  side 2    Res =  0.1326E+03
 MRCHDU: Convergence failed at 123  side 2    Res =  0.2978E+03
 MRCHDU: Convergence failed at 124  side 2    Res =  0.4924E+03
 MRCHDU: Convergence failed at 125  side 2    Res =  0.1117E+04
 MRCHDU: Convergence failed at 126  side 2    Res =  0.1609E+04
 MRCHDU: Convergence failed at 127  side 2    Res =  0.1228E+04
 MRCHDU: Convergence failed at 128  side 2    Res =  0.1103E+04
 MRCHDU: Convergence failed at 129  side 2    Res =  0.4588E+03
 MRCHDU: Convergence failed at 130  side 2    Res =  0.3286E+03
 MRCHDU: Convergence failed at 131  side 2    Res =  0.2247E+03
 MRCHDU: Convergence failed at 132  side 2    Res =  0.1759E+03
 MRCHDU: Convergence failed at 133  side 2    Res =  0.1435E+03
 MRCHDU: Convergence failed at 134  side 2    Res =  0.1243E+03
 MRCHDU: Convergence failed at 135  side 2    Res =  0.1096E+03
 MRCHDU: Convergence failed at 136  side 2    Res =  0.9454E+02
 MRCHDU: Convergence failed at 137  side 2    Res =  0.8714E+02
 MRCHDU: Convergence failed at 138  side 2    Res =  0.8574E+02
 MRCHDU: Convergence failed at 139  side 2    Res =  0.7645E+02
 MRCHDU: Convergence failed at 140  side 2    Res =  0.7195E+02
 MRCHDU: Convergence failed at 141  side 2    Res =  0.7104E+02
 MRCHDU: Convergence failed at 142  side 2    Res =  0.6639E+02
 MRCHDU: Convergence failed at 143  side 2    Res =  0.6470E+02
 MRCHDU: Convergence failed at 144  side 2    Res =  0.6150E+02
 MRCHDU: Convergence failed at 145  side 2    Res =  0.5977E+02
 MRCHDU: Convergence failed at 146  side 2    Res =  0.5694E+02
 MRCHDU: Convergence failed at 147  side 2    Res =  0.5452E+02
 MRCHDU: Convergence failed at 148  side 2    Res =  0.5364E+02
 MRCHDU: Convergence failed at 149  side 2    Res =  0.4268E+02
 MRCHDU: Convergence failed at 150  side 2    Res =  0.3583E+02
 MRCHDU: Convergence failed at 151  side 2    Res =  0.3474E+02
 MRCHDU: Convergence failed at 152  side 2    Res =  0.3405E+02
 MRCHDU: Convergence failed at 153  side 2    Res =  0.2575E+02
 MRCHDU: Convergence failed at 154  side 2    Res =  0.2554E+02
 MRCHDU: Convergence failed at 155  side 2    Res =  0.2486E+02
 MRCHDU: Convergence failed at 156  side 2    Res =  0.2407E+02
 MRCHDU: Convergence failed at 157  side 2    Res =  0.2385E+02
 MRCHDU: Convergence failed at 158  side 2    Res =  0.2300E+02
 MRCHDU: Convergence failed at 159  side 2    Res =  0.2235E+02
 MRCHDU: Convergence failed at 160  side 2    Res =  0.2178E+02
 MRCHDU: Convergence failed at 161  side 2    Res =  0.2092E+02
 MRCHDU: Convergence failed at 162  side 2    Res =  0.2042E+02
 MRCHDU: Convergence failed at 163  side 2    Res =  0.1978E+02
 MRCHDU: Convergence failed at 164  side 2    Res =  0.1918E+02
 MRCHDU: Convergence failed at 165  side 2    Res =  0.1870E+02
 MRCHDU: Convergence failed at 166  side 2    Res =  0.1824E+02
 MRCHDU: Convergence failed at 167  side 2    Res =  0.1726E+02
 Side 1 forced transition at x/c =  1.0000  135
 Side 2  free  transition at x/c =  0.1558   81

   3   rms: 0.3703E+00   max: 0.1287E+01   D at  181  2   RLX: 0.529
       a = -6.000      CL = -0.6768
      Cm =  0.0381     CD =  0.04332   =>   CDf =  0.00600    CDp =  0.03732

 Side 1 forced transition at x/c =  1.0000  137
 Side 2  free  transition at x/c =  0.1633   80
 idif Ue xi dudx           1  5.34272119E-02  2.26593018E-03   23.578489    
 Uenew xinew           2  1.30195096E-02  5.52177429E-04

   4   rms: 0.4152E+00   max: -.2048E+01   D at    2  1   RLX: 0.244
       a = -6.000      CL = -0.6569
      Cm =  0.0162     CD =  0.03827   =>   CDf =  0.01092    CDp =  0.02735

 Side 1 forced transition at x/c =  1.0000  136
 Side 2  free  transition at x/c =  0.1625   81
 idif Ue xi dudx           1  5.15137389E-02  2.30801105E-03   22.319538    
 Uenew xinew           2  1.20635973E-02  5.40494919E-04

   5   rms: 0.3471E+00   max: 0.1016E+01   D at  110  2
       a = -6.000      CL = -0.6209
      Cm = -0.0381     CD =  0.05949   =>   CDf =  0.00953    CDp =  0.04996

 Side 1 forced transition at x/c =  1.0000  135
 Side 2  free  transition at x/c =  0.1811   84

   6   rms: 0.1096E+00   max: 0.1147E+01   T at   84  2
       a = -6.000      CL = -0.5873
      Cm = -0.0425     CD =  0.05750   =>   CDf =  0.00579    CDp =  0.05171

 Side 1 forced transition at x/c =  1.0000  135
 Side 2  free  transition at x/c =  0.1641   82

   7   rms: 0.1083E+00   max: -.1356E+01   T at   82  2   RLX: 0.369
       a = -6.000      CL = -0.6138
      Cm = -0.0310     CD =  0.06944   =>   CDf =  0.00588    CDp =  0.06356

 Side 1 forced transition at x/c =  1.0000  136
 Side 2  free  transition at x/c =  0.1699   82

   8   rms: 0.7012E+00   max: -.9183E+01   T at   82  2   RLX: 0.054
       a = -6.000      CL = -0.6039
      Cm = -0.0304     CD =  0.06461   =>   CDf =  0.00630    CDp =  0.05830

 Side 1 forced transition at x/c =  1.0000  136
 Side 2  free  transition at x/c =  0.1769   83

   9   rms: 0.5367E-01   max: 0.6582E+00   T at   83  2
       a = -6.000      CL = -0.5566
      Cm = -0.0370     CD =  0.06686   =>   CDf =  0.00619    CDp =  0.06067

 Side 1 forced transition at x/c =  1.0000  136
 Side 2  free  transition at x/c =  0.1712   82

  10   rms: 0.1612E+00   max: -.1559E+01   T at   82  2   RLX: 0.321
       a = -6.000      CL = -0.5646
      Cm = -0.0347     CD =  0.06508   =>   CDf =  0.00648    CDp =  0.05860

 Side 1 forced transition at x/c =  1.0000  136
 Side 2  free  transition at x/c =  0.1777   83

  11   rms: 0.7327E-01   max: 0.8349E+00   T at   83  2
       a = -6.000      CL = -0.5582
      Cm = -0.0380     CD =  0.06618   =>   CDf =  0.00645    CDp =  0.05974

 Side 1 forced transition at x/c =  1.0000  136
 Side 2  free  transition at x/c =  0.1684   82
 idif Ue xi dudx           1  3.99507172E-02  1.80506706E-03   22.132540    
 Uenew xinew           2  8.31097364E-04  3.75509262E-05

  12   rms: 0.4306E+01   max: 0.6062E+02   T at   82  2   RLX: 0.025
       a = -6.000      CL = -0.5676
      Cm = -0.0433     CD =  0.05245   =>   CDf =  0.00631    CDp =  0.04614

 Side 1 forced transition at x/c =  1.0000  135
 Side 2  free  transition at x/c =  0.1582   81

  13   rms: 0.1851E+00   max: 0.9543E+00   D at   84  2   RLX: 0.906
       a = -6.000      CL = -0.5630
      Cm = -0.0384     CD =  0.06595   =>   CDf =  0.00748    CDp =  0.05847

 Side 1 forced transition at x/c =  1.0000  136
 Side 2  free  transition at x/c =  0.1634   81

  14   rms: 0.4747E+00   max: -.1811E+01   T at   81  2   RLX: 0.276
       a = -6.000      CL = -0.5637
      Cm = -0.0364     CD =  0.05673   =>   CDf =  0.00764    CDp =  0.04909

 Side 1 forced transition at x/c =  1.0000  136
 Side 2  free  transition at x/c =  0.1740   82

  15   rms: 0.2761E+00   max: -.1450E+01   T at   82  2   RLX: 0.345
       a = -6.000      CL = -0.5630
      Cm = -0.0330     CD =  0.06351   =>   CDf =  0.00668    CDp =  0.05683

 Side 1 forced transition at x/c =  1.0000  136
 Side 2  free  transition at x/c =  0.1877   84

  16   rms: 0.1019E+00   max: 0.9097E+00   T at   84  2
       a = -6.000      CL = -0.5605
      Cm = -0.0367     CD =  0.06869   =>   CDf =  0.00640    CDp =  0.06228

 Side 1 forced transition at x/c =  1.0000  136
 Side 2  free  transition at x/c =  0.1745   82

  17   rms: 0.6401E-01   max: -.8864E+00   T at   82  2   RLX: 0.564
       a = -6.000      CL = -0.5724
      Cm = -0.0337     CD =  0.06903   =>   CDf =  0.00596    CDp =  0.06307

 Side 1 forced transition at x/c =  1.0000  136
 Side 2  free  transition at x/c =  0.1768   83
 idif Ue xi dudx           1  5.42942397E-02  2.33554840E-03   23.246891    
 Uenew xinew           2  1.32049844E-02  5.68032265E-04

  18   rms: 0.2177E+00   max: 0.1869E+01   T at   83  2   RLX: 0.802
       a = -6.000      CL = -0.5682
      Cm = -0.0498     CD =  0.05526   =>   CDf =  0.00612    CDp =  0.04914

 MRCHDU: Convergence failed at  92  side 2    Res =  0.2320E+01
 MRCHDU: Convergence failed at  93  side 2    Res =  0.1668E+02
 MRCHDU: Convergence failed at  94  side 2    Res =  0.3649E+01
 MRCHDU: Convergence failed at  95  side 2    Res =  0.2370E+01
 MRCHDU: Convergence failed at  96  side 2    Res =  0.2055E+01
 MRCHDU: Convergence failed at  97  side 2    Res =  0.1857E+01
 MRCHDU: Convergence failed at  98  side 2    Res =  0.1779E+01
 MRCHDU: Convergence failed at  99  side 2    Res =  0.2221E+01
 MRCHDU: Convergence failed at 100  side 2    Res =  0.2651E+01
 MRCHDU: Convergence failed at 101  side 2    Res =  0.3209E+01
 MRCHDU: Convergence failed at 102  side 2    Res =  0.3992E+01
 MRCHDU: Convergence failed at 103  side 2    Res =  0.5063E+01
 MRCHDU: Convergence failed at 104  side 2    Res =  0.6579E+01
 MRCHDU: Convergence failed at 105  side 2    Res =  0.9451E+01
 MRCHDU: Convergence failed at 106  side 2    Res =  0.1505E+02
 MRCHDU: Convergence failed at 107  side 2    Res =  0.3143E+02
 MRCHDU: Convergence failed at 108  side 2    Res =  0.7238E+03
 MRCHDU: Convergence failed at 109  side 2    Res =  0.4048E+02
 MRCHDU: Convergence failed at 110  side 2    Res =  0.2109E+02
 MRCHDU: Convergence failed at 111  side 2    Res =  0.1499E+02
 MRCHDU: Convergence failed at 112  side 2    Res =  0.1212E+02
 MRCHDU: Convergence failed at 113  side 2    Res =  0.1043E+02
 MRCHDU: Convergence failed at 114  side 2    Res =  0.9364E+01
 MRCHDU: Convergence failed at 115  side 2    Res =  0.8645E+01
 MRCHDU: Convergence failed at 116  side 2    Res =  0.8115E+01
 MRCHDU: Convergence failed at 117  side 2    Res =  0.7771E+01
 MRCHDU: Convergence failed at 118  side 2    Res =  0.7531E+01
 MRCHDU: Convergence failed at 119  side 2    Res =  0.7380E+01
 MRCHDU: Convergence failed at 120  side 2    Res =  0.7293E+01
 MRCHDU: Convergence failed at 121  side 2    Res =  0.7245E+01
 MRCHDU: Convergence failed at 122  side 2    Res =  0.7227E+01
 MRCHDU: Convergence failed at 123  side 2    Res =  0.7246E+01
 MRCHDU: Convergence failed at 124  side 2    Res =  0.7295E+01
 MRCHDU: Convergence failed at 125  side 2    Res =  0.7374E+01
 MRCHDU: Convergence failed at 126  side 2    Res =  0.7462E+01
 MRCHDU: Convergence failed at 127  side 2    Res =  0.7574E+01
 MRCHDU: Convergence failed at 128  side 2    Res =  0.7710E+01
 MRCHDU: Convergence failed at 129  side 2    Res =  0.7865E+01
 MRCHDU: Convergence failed at 130  side 2    Res =  0.8033E+01
 MRCHDU: Convergence failed at 131  side 2    Res =  0.8219E+01
 MRCHDU: Convergence failed at 132  side 2    Res =  0.8419E+01
 MRCHDU: Convergence failed at 133  side 2    Res =  0.8614E+01
 MRCHDU: Convergence failed at 134  side 2    Res =  0.8839E+01
 MRCHDU: Convergence failed at 135  side 2    Res =  0.9192E+01
 MRCHDU: Convergence failed at 136  side 2    Res =  0.9442E+01
 MRCHDU: Convergence failed at 137  side 2    Res =  0.9714E+01
 MRCHDU: Convergence failed at 138  side 2    Res =  0.1001E+02
 MRCHDU: Convergence failed at 139  side 2    Res =  0.1028E+02
 MRCHDU: Convergence failed at 140  side 2    Res =  0.1103E+02
 MRCHDU: Convergence failed at 141  side 2    Res =  0.1142E+02
 MRCHDU: Convergence failed at 142  side 2    Res =  0.1180E+02
 MRCHDU: Convergence failed at 143  side 2    Res =  0.1220E+02
 MRCHDU: Convergence failed at 144  side 2    Res =  0.1263E+02
 MRCHDU: Convergence failed at 145  side 2    Res =  0.1315E+02
 MRCHDU: Convergence failed at 146  side 2    Res =  0.1365E+02
 MRCHDU: Convergence failed at 147  side 2    Res =  0.1418E+02
 MRCHDU: Convergence failed at 148  side 2    Res =  0.1473E+02
 MRCHDU: Convergence failed at 149  side 2    Res =  0.1531E+02
 MRCHDU: Convergence failed at 150  side 2    Res =  0.1596E+02
 MRCHDU: Convergence failed at 151  side 2    Res =  0.1679E+02
 MRCHDU: Convergence failed at 152  side 2    Res =  0.1826E+02
 MRCHDU: Convergence failed at 153  side 2    Res =  0.1925E+02
 MRCHDU: Convergence failed at 154  side 2    Res =  0.2034E+02
 MRCHDU: Convergence failed at 155  side 2    Res =  0.2167E+02
 MRCHDU: Convergence failed at 156  side 2    Res =  0.2320E+02
 MRCHDU: Convergence failed at 157  side 2    Res =  0.2491E+02
 MRCHDU: Convergence failed at 158  side 2    Res =  0.2899E+02
 MRCHDU: Convergence failed at 159  side 2    Res =  0.3789E+02
 MRCHDU: Convergence failed at 160  side 2    Res =  0.4319E+02
 MRCHDU: Convergence failed at 161  side 2    Res =  0.5149E+02
 MRCHDU: Convergence failed at 162  side 2    Res =  0.6208E+02
 MRCHDU: Convergence failed at 163  side 2    Res =  0.7730E+02
 MRCHDU: Convergence failed at 164  side 2    Res =  0.1024E+03
 MRCHDU: Convergence failed at 165  side 2    Res =  0.1419E+03
 MRCHDU: Convergence failed at 166  side 2    Res =  0.2226E+03
 MRCHDU: Convergence failed at 167  side 2    Res =  0.1814E+04
 Side 1 forced transition at x/c =  1.0000  135
 Side 2  free  transition at x/c =  0.1572   81

  19   rms: 0.4188E+00   max: 0.1474E+01   D at  179  2   RLX: 0.376
       a = -6.000      CL = -0.8076
      Cm =  0.0818     CD =  0.03885   =>   CDf =  0.00596    CDp =  0.03288

 Side 1 forced transition at x/c =  1.0000  136
 Side 2  free  transition at x/c =  0.1624   81
 idif Ue xi dudx           1  7.73085877E-02  3.11315060E-03   24.832911    
 Uenew xinew           2  3.34160216E-02  1.34563446E-03

  20   rms: 0.4059E+00   max: 0.1141E+01   D at  100  2
       a = -6.000      CL = -0.6215
      Cm = -0.0449     CD =  0.04671   =>   CDf =  0.01189    CDp =  0.03482

 MRCHDU: Convergence failed at  98  side 2    Res =  0.5702E+01
 MRCHDU: Convergence failed at  99  side 2    Res =  0.2585E+01
 MRCHDU: Convergence failed at 100  side 2    Res =  0.1911E+01
 MRCHDU: Convergence failed at 101  side 2    Res =  0.1515E+01
 MRCHDU: Convergence failed at 102  side 2    Res =  0.1463E+01
 MRCHDU: Convergence failed at 103  side 2    Res =  0.1888E+01
 MRCHDU: Convergence failed at 104  side 2    Res =  0.2359E+01
 MRCHDU: Convergence failed at 105  side 2    Res =  0.3011E+01
 MRCHDU: Convergence failed at 106  side 2    Res =  0.4001E+01
 MRCHDU: Convergence failed at 107  side 2    Res =  0.5608E+01
 MRCHDU: Convergence failed at 108  side 2    Res =  0.8697E+01
 MRCHDU: Convergence failed at 109  side 2    Res =  0.1685E+02
 MRCHDU: Convergence failed at 110  side 2    Res =  0.1087E+03
 MRCHDU: Convergence failed at 111  side 2    Res =  0.2827E+02
 MRCHDU: Convergence failed at 112  side 2    Res =  0.1274E+02
 MRCHDU: Convergence failed at 113  side 2    Res =  0.8793E+01
 MRCHDU: Convergence failed at 114  side 2    Res =  0.6995E+01
 MRCHDU: Convergence failed at 115  side 2    Res =  0.5957E+01
 MRCHDU: Convergence failed at 116  side 2    Res =  0.5293E+01
 MRCHDU: Convergence failed at 117  side 2    Res =  0.4832E+01
 MRCHDU: Convergence failed at 118  side 2    Res =  0.4502E+01
 MRCHDU: Convergence failed at 119  side 2    Res =  0.4263E+01
 MRCHDU: Convergence failed at 120  side 2    Res =  0.4090E+01
 MRCHDU: Convergence failed at 121  side 2    Res =  0.3960E+01
 MRCHDU: Convergence failed at 122  side 2    Res =  0.3804E+01
 MRCHDU: Convergence failed at 123  side 2    Res =  0.3732E+01
 MRCHDU: Convergence failed at 124  side 2    Res =  0.3663E+01
 MRCHDU: Convergence failed at 125  side 2    Res =  0.3623E+01
 MRCHDU: Convergence failed at 126  side 2    Res =  0.3599E+01
 MRCHDU: Convergence failed at 127  side 2    Res =  0.3584E+01
 MRCHDU: Convergence failed at 128  side 2    Res =  0.3578E+01
 MRCHDU: Convergence failed at 129  side 2    Res =  0.3578E+01
 MRCHDU: Convergence failed at 130  side 2    Res =  0.3536E+01
 MRCHDU: Convergence failed at 131  side 2    Res =  0.3549E+01
 MRCHDU: Convergence failed at 132  side 2    Res =  0.3562E+01
 MRCHDU: Convergence failed at 133  side 2    Res =  0.3581E+01
 MRCHDU: Convergence failed at 134  side 2    Res =  0.3597E+01
 MRCHDU: Convergence failed at 135  side 2    Res =  0.3619E+01
 MRCHDU: Convergence failed at 136  side 2    Res =  0.3640E+01
 MRCHDU: Convergence failed at 137  side 2    Res =  0.3663E+01
 MRCHDU: Convergence failed at 138  side 2    Res =  0.3689E+01
 MRCHDU: Convergence failed at 139  side 2    Res =  0.3714E+01
 MRCHDU: Convergence failed at 140  side 2    Res =  0.3742E+01
 MRCHDU: Convergence failed at 141  side 2    Res =  0.3773E+01
 MRCHDU: Convergence failed at 142  side 2    Res =  0.3798E+01
 MRCHDU: Convergence failed at 143  side 2    Res =  0.3826E+01
 MRCHDU: Convergence failed at 144  side 2    Res =  0.3856E+01
 MRCHDU: Convergence failed at 145  side 2    Res =  0.3884E+01
 MRCHDU: Convergence failed at 146  side 2    Res =  0.3914E+01
 MRCHDU: Convergence failed at 147  side 2    Res =  0.3945E+01
 MRCHDU: Convergence failed at 148  side 2    Res =  0.3975E+01
 MRCHDU: Convergence failed at 149  side 2    Res =  0.4003E+01
 MRCHDU: Convergence failed at 150  side 2    Res =  0.4033E+01
 MRCHDU: Convergence failed at 151  side 2    Res =  0.4064E+01
 MRCHDU: Convergence failed at 152  side 2    Res =  0.4097E+01
 MRCHDU: Convergence failed at 153  side 2    Res =  0.4129E+01
 MRCHDU: Convergence failed at 154  side 2    Res =  0.4161E+01
 MRCHDU: Convergence failed at 155  side 2    Res =  0.4281E+01
 MRCHDU: Convergence failed at 156  side 2    Res =  0.4314E+01
 MRCHDU: Convergence failed at 157  side 2    Res =  0.4349E+01
 MRCHDU: Convergence failed at 158  side 2    Res =  0.4385E+01
 MRCHDU: Convergence failed at 159  side 2    Res =  0.4420E+01
 MRCHDU: Convergence failed at 160  side 2    Res =  0.4456E+01
 MRCHDU: Convergence failed at 161  side 2    Res =  0.4489E+01
 MRCHDU: Convergence failed at 162  side 2    Res =  0.4524E+01
 MRCHDU: Convergence failed at 163  side 2    Res =  0.4558E+01
 MRCHDU: Convergence failed at 164  side 2    Res =  0.4590E+01
 MRCHDU: Convergence failed at 165  side 2    Res =  0.4624E+01
 MRCHDU: Convergence failed at 166  side 2    Res =  0.4650E+01
 MRCHDU: Convergence failed at 167  side 2    Res =  0.4578E+01
 Side 1 forced transition at x/c =  1.0000  135
 Side 2  free  transition at x/c =  0.1614   82

  21   rms: 0.3827E+00   max: 0.3160E+01   T at   82  2   RLX: 0.474
       a = -6.000      CL = -0.7114
      Cm =  0.0353     CD =  0.03806   =>   CDf =  0.00556    CDp =  0.03250

 Side 1 forced transition at x/c =  1.0000  135
 Side 2  free  transition at x/c =  0.1567   81

  22   rms: 0.6869E+00   max: 0.2991E+01   D at   82  2   RLX: 0.501
       a = -6.000      CL = -0.6850
      Cm = -0.0024     CD =  0.04543   =>   CDf =  0.01071    CDp =  0.03472

 Side 1 forced transition at x/c =  1.0000  135
 Side 2  free  transition at x/c =  0.1621   82

  23   rms: 0.1204E+01   max: 0.7830E+01   T at   82  2   RLX: 0.095
       a = -6.000      CL = -0.6539
      Cm = -0.0098     CD =  0.03261   =>   CDf =  0.00916    CDp =  0.02345

 MRCHDU: Convergence failed at  87  side 2    Res =  0.2883E+01
 MRCHDU: Convergence failed at  88  side 2    Res =  0.2221E+01
 MRCHDU: Convergence failed at  89  side 2    Res =  0.2017E+01
 MRCHDU: Convergence failed at  90  side 2    Res =  0.2577E+01
 MRCHDU: Convergence failed at  91  side 2    Res =  0.2170E+01
 MRCHDU: Convergence failed at  92  side 2    Res =  0.4958E+01
 MRCHDU: Convergence failed at  93  side 2    Res =  0.4612E+01
 MRCHDU: Convergence failed at  94  side 2    Res =  0.2870E+01
 MRCHDU: Convergence failed at  95  side 2    Res =  0.2135E+01
 MRCHDU: Convergence failed at  96  side 2    Res =  0.1542E+01
 MRCHDU: Convergence failed at  97  side 2    Res =  0.1404E+01
 MRCHDU: Convergence failed at  98  side 2    Res =  0.1640E+01
 MRCHDU: Convergence failed at  99  side 2    Res =  0.2139E+01
 MRCHDU: Convergence failed at 100  side 2    Res =  0.2441E+01
 MRCHDU: Convergence failed at 101  side 2    Res =  0.2760E+01
 MRCHDU: Convergence failed at 102  side 2    Res =  0.3116E+01
 MRCHDU: Convergence failed at 103  side 2    Res =  0.3434E+01
 MRCHDU: Convergence failed at 104  side 2    Res =  0.3723E+01
 MRCHDU: Convergence failed at 105  side 2    Res =  0.3944E+01
 MRCHDU: Convergence failed at 106  side 2    Res =  0.4027E+01
 MRCHDU: Convergence failed at 107  side 2    Res =  0.4089E+01
 MRCHDU: Convergence failed at 108  side 2    Res =  0.4118E+01
 MRCHDU: Convergence failed at 109  side 2    Res =  0.4162E+01
 MRCHDU: Convergence failed at 110  side 2    Res =  0.4165E+01
 MRCHDU: Convergence failed at 111  side 2    Res =  0.4123E+01
 MRCHDU: Convergence failed at 112  side 2    Res =  0.4080E+01
 MRCHDU: Convergence failed at 113  side 2    Res =  0.4051E+01
 MRCHDU: Convergence failed at 114  side 2    Res =  0.4041E+01
 MRCHDU: Convergence failed at 115  side 2    Res =  0.4018E+01
 MRCHDU: Convergence failed at 116  side 2    Res =  0.4011E+01
 MRCHDU: Convergence failed at 117  side 2    Res =  0.3984E+01
 MRCHDU: Convergence failed at 118  side 2    Res =  0.3970E+01
 MRCHDU: Convergence failed at 119  side 2    Res =  0.3964E+01
 MRCHDU: Convergence failed at 120  side 2    Res =  0.3974E+01
 MRCHDU: Convergence failed at 121  side 2    Res =  0.3981E+01
 MRCHDU: Convergence failed at 122  side 2    Res =  0.3987E+01
 MRCHDU: Convergence failed at 123  side 2    Res =  0.4004E+01
 MRCHDU: Convergence failed at 124  side 2    Res =  0.4026E+01
 MRCHDU: Convergence failed at 125  side 2    Res =  0.4059E+01
 MRCHDU: Convergence failed at 126  side 2    Res =  0.4095E+01
 MRCHDU: Convergence failed at 127  side 2    Res =  0.4122E+01
 MRCHDU: Convergence failed at 128  side 2    Res =  0.4151E+01
 MRCHDU: Convergence failed at 129  side 2    Res =  0.4197E+01
 MRCHDU: Convergence failed at 130  side 2    Res =  0.4238E+01
 MRCHDU: Convergence failed at 131  side 2    Res =  0.4278E+01
 MRCHDU: Convergence failed at 132  side 2    Res =  0.4329E+01
 MRCHDU: Convergence failed at 133  side 2    Res =  0.4377E+01
 MRCHDU: Convergence failed at 134  side 2    Res =  0.4428E+01
 MRCHDU: Convergence failed at 135  side 2    Res =  0.4476E+01
 MRCHDU: Convergence failed at 136  side 2    Res =  0.4535E+01
 MRCHDU: Convergence failed at 137  side 2    Res =  0.4594E+01
 MRCHDU: Convergence failed at 138  side 2    Res =  0.4657E+01
 MRCHDU: Convergence failed at 139  side 2    Res =  0.4707E+01
 MRCHDU: Convergence failed at 140  side 2    Res =  0.4765E+01
 MRCHDU: Convergence failed at 141  side 2    Res =  0.4827E+01
 MRCHDU: Convergence failed at 142  side 2    Res =  0.4886E+01
 MRCHDU: Convergence failed at 143  side 2    Res =  0.4947E+01
 MRCHDU: Convergence failed at 144  side 2    Res =  0.5070E+01
 MRCHDU: Convergence failed at 145  side 2    Res =  0.5142E+01
 MRCHDU: Convergence failed at 146  side 2    Res =  0.5209E+01
 MRCHDU: Convergence failed at 147  side 2    Res =  0.5466E+01
 MRCHDU: Convergence failed at 148  side 2    Res =  0.5532E+01
 MRCHDU: Convergence failed at 149  side 2    Res =  0.5616E+01
 MRCHDU: Convergence failed at 150  side 2    Res =  0.5710E+01
 MRCHDU: Convergence failed at 151  side 2    Res =  0.5811E+01
 MRCHDU: Convergence failed at 152  side 2    Res =  0.5902E+01
 MRCHDU: Convergence failed at 153  side 2    Res =  0.6001E+01
 MRCHDU: Convergence failed at 154  side 2    Res =  0.6107E+01
 MRCHDU: Convergence failed at 155  side 2    Res =  0.6250E+01
 MRCHDU: Convergence failed at 156  side 2    Res =  0.6399E+01
 MRCHDU: Convergence failed at 157  side 2    Res =  0.6556E+01
 MRCHDU: Convergence failed at 158  side 2    Res =  0.6744E+01
 MRCHDU: Convergence failed at 159  side 2    Res =  0.6944E+01
 MRCHDU: Convergence failed at 160  side 2    Res =  0.7189E+01
 MRCHDU: Convergence failed at 161  side 2    Res =  0.7462E+01
 MRCHDU: Convergence failed at 162  side 2    Res =  0.7777E+01
 MRCHDU: Convergence failed at 163  side 2    Res =  0.8123E+01
 MRCHDU: Convergence failed at 164  side 2    Res =  0.8502E+01
 MRCHDU: Convergence failed at 165  side 2    Res =  0.8890E+01
 MRCHDU: Convergence failed at 166  side 2    Res =  0.9342E+01
 MRCHDU: Convergence failed at 167  side 2    Res =  0.1074E+02
 Side 1 forced transition at x/c =  1.0000  135
 Side 2  free  transition at x/c =  0.1550   81

  24   rms: 0.5713E+00   max: 0.2544E+01   D at   82  2   RLX: 0.550
       a = -6.000      CL = -0.7179
      Cm =  0.0506     CD =  0.03513   =>   CDf =  0.00655    CDp =  0.02858

 MRCHDU: Convergence failed at 176  side 2    Res =  0.2059E+01
 MRCHDU: Convergence failed at 177  side 2    Res =  0.1163E+02
 MRCHDU: Convergence failed at 178  side 2    Res =  0.6551E+01
 MRCHDU: Convergence failed at 179  side 2    Res =  0.2991E+01
 MRCHDU: Convergence failed at 180  side 2    Res =  0.1737E+01
 MRCHDU: Convergence failed at 181  side 2    Res =  0.1391E+01
 MRCHDU: Convergence failed at 182  side 2    Res =  0.1149E+01
 Side 1 forced transition at x/c =  1.0000  137
 Side 2  free  transition at x/c =  0.1627   80
 idif Ue xi dudx           2  0.11347365      4.59623337E-03   24.688400    
 Uenew xinew           3  7.11638331E-02  2.88248062E-03

  25   rms: 0.4326E+00   max: 0.1918E+01   T at    2  1   RLX: 0.782
       a = -6.000      CL = -0.6315
      Cm = -0.0267     CD =  0.04180   =>   CDf =  0.01211    CDp =  0.02968

 Side 1 forced transition at x/c =  1.0000  135
 Side 2  free  transition at x/c =  0.1559   81

  26   rms: 0.2003E+00   max: -.7607E+00   T at   81  2   RLX: 0.657
       a = -6.000      CL = -0.5945
      Cm = -0.0326     CD =  0.06183   =>   CDf =  0.00738    CDp =  0.05445

 Side 1 forced transition at x/c =  1.0000  135
 Side 2  free  transition at x/c =  0.1635   82

  27   rms: 0.1032E+01   max: -.5730E+01   T at   82  2   RLX: 0.087
       a = -6.000      CL = -0.5904
      Cm = -0.0298     CD =  0.05729   =>   CDf =  0.00714    CDp =  0.05015

 Side 1 forced transition at x/c =  1.0000  136
 Side 2  free  transition at x/c =  0.1740   82

  28   rms: 0.3179E+00   max: -.1993E+01   T at   82  2   RLX: 0.251
       a = -6.000      CL = -0.5823
      Cm = -0.0281     CD =  0.06273   =>   CDf =  0.00657    CDp =  0.05616

 Side 1 forced transition at x/c =  1.0000  136
 Side 2  free  transition at x/c =  0.1882   84

  29   rms: 0.9611E-01   max: 0.9582E+00   T at   84  2
       a = -6.000      CL = -0.5596
      Cm = -0.0371     CD =  0.06770   =>   CDf =  0.00636    CDp =  0.06134

 Side 1 forced transition at x/c =  1.0000  136
 Side 2  free  transition at x/c =  0.1739   82

  30   rms: 0.7340E-01   max: -.1124E+01   T at   82  2   RLX: 0.445
       a = -6.000      CL = -0.5767
      Cm = -0.0328     CD =  0.06948   =>   CDf =  0.00594    CDp =  0.06354

 Side 1 forced transition at x/c =  1.0000  136
 Side 2  free  transition at x/c =  0.1774   83
 idif Ue xi dudx           1  4.84445840E-02  2.11966038E-03   22.854879    
 Uenew xinew           2  8.04821402E-03  3.52144241E-04

  31   rms: 0.2818E+00   max: 0.2839E+01   T at   83  2   RLX: 0.528
       a = -6.000      CL = -0.5723
      Cm = -0.0464     CD =  0.05605   =>   CDf =  0.00611    CDp =  0.04994

 MRCHDU: Convergence failed at  93  side 2    Res =  0.4131E+01
 MRCHDU: Convergence failed at  94  side 2    Res =  0.8475E+01
 MRCHDU: Convergence failed at  95  side 2    Res =  0.3493E+01
 MRCHDU: Convergence failed at  96  side 2    Res =  0.2636E+01
 MRCHDU: Convergence failed at  97  side 2    Res =  0.2056E+01
 MRCHDU: Convergence failed at  98  side 2    Res =  0.1884E+01
 MRCHDU: Convergence failed at  99  side 2    Res =  0.1792E+01
 MRCHDU: Convergence failed at 100  side 2    Res =  0.1736E+01
 MRCHDU: Convergence failed at 101  side 2    Res =  0.1724E+01
 MRCHDU: Convergence failed at 102  side 2    Res =  0.2119E+01
 MRCHDU: Convergence failed at 103  side 2    Res =  0.2401E+01
 MRCHDU: Convergence failed at 104  side 2    Res =  0.2718E+01
 MRCHDU: Convergence failed at 105  side 2    Res =  0.3092E+01
 MRCHDU: Convergence failed at 106  side 2    Res =  0.3538E+01
 MRCHDU: Convergence failed at 107  side 2    Res =  0.4057E+01
 MRCHDU: Convergence failed at 108  side 2    Res =  0.4660E+01
 MRCHDU: Convergence failed at 109  side 2    Res =  0.5351E+01
 MRCHDU: Convergence failed at 110  side 2    Res =  0.6163E+01
 MRCHDU: Convergence failed at 111  side 2    Res =  0.7121E+01
 MRCHDU: Convergence failed at 112  side 2    Res =  0.8229E+01
 MRCHDU: Convergence failed at 113  side 2    Res =  0.9563E+01
 MRCHDU: Convergence failed at 114  side 2    Res =  0.1116E+02
 MRCHDU: Convergence failed at 115  side 2    Res =  0.1311E+02
 MRCHDU: Convergence failed at 116  side 2    Res =  0.1541E+02
 MRCHDU: Convergence failed at 117  side 2    Res =  0.1797E+02
 MRCHDU: Convergence failed at 118  side 2    Res =  0.2169E+02
 MRCHDU: Convergence failed at 119  side 2    Res =  0.2585E+02
 MRCHDU: Convergence failed at 120  side 2    Res =  0.3104E+02
 MRCHDU: Convergence failed at 121  side 2    Res =  0.3694E+02
 MRCHDU: Convergence failed at 122  side 2    Res =  0.4412E+02
 MRCHDU: Convergence failed at 123  side 2    Res =  0.5164E+02
 MRCHDU: Convergence failed at 124  side 2    Res =  0.5907E+02
 MRCHDU: Convergence failed at 125  side 2    Res =  0.6991E+02
 MRCHDU: Convergence failed at 126  side 2    Res =  0.8335E+02
 MRCHDU: Convergence failed at 127  side 2    Res =  0.9224E+02
 MRCHDU: Convergence failed at 128  side 2    Res =  0.1009E+03
 MRCHDU: Convergence failed at 129  side 2    Res =  0.1172E+03
 MRCHDU: Convergence failed at 130  side 2    Res =  0.1215E+03
 MRCHDU: Convergence failed at 131  side 2    Res =  0.1244E+03
 MRCHDU: Convergence failed at 132  side 2    Res =  0.1012E+03
 MRCHDU: Convergence failed at 133  side 2    Res =  0.1047E+03
 MRCHDU: Convergence failed at 134  side 2    Res =  0.8181E+02
 MRCHDU: Convergence failed at 135  side 2    Res =  0.7785E+02
 MRCHDU: Convergence failed at 136  side 2    Res =  0.7704E+02
 MRCHDU: Convergence failed at 137  side 2    Res =  0.7800E+02
 MRCHDU: Convergence failed at 138  side 2    Res =  0.7461E+02
 MRCHDU: Convergence failed at 139  side 2    Res =  0.7375E+02
 MRCHDU: Convergence failed at 140  side 2    Res =  0.6919E+02
 MRCHDU: Convergence failed at 141  side 2    Res =  0.6560E+02
 MRCHDU: Convergence failed at 142  side 2    Res =  0.6392E+02
 MRCHDU: Convergence failed at 143  side 2    Res =  0.6263E+02
 MRCHDU: Convergence failed at 144  side 2    Res =  0.5882E+02
 MRCHDU: Convergence failed at 145  side 2    Res =  0.5370E+02
 MRCHDU: Convergence failed at 146  side 2    Res =  0.5166E+02
 MRCHDU: Convergence failed at 147  side 2    Res =  0.4921E+02
 MRCHDU: Convergence failed at 148  side 2    Res =  0.4775E+02
 MRCHDU: Convergence failed at 149  side 2    Res =  0.4622E+02
 MRCHDU: Convergence failed at 150  side 2    Res =  0.4401E+02
 MRCHDU: Convergence failed at 151  side 2    Res =  0.4230E+02
 MRCHDU: Convergence failed at 152  side 2    Res =  0.4092E+02
 MRCHDU: Convergence failed at 153  side 2    Res =  0.3823E+02
 MRCHDU: Convergence failed at 154  side 2    Res =  0.3673E+02
 MRCHDU: Convergence failed at 155  side 2    Res =  0.3143E+02
 MRCHDU: Convergence failed at 156  side 2    Res =  0.3007E+02
 MRCHDU: Convergence failed at 157  side 2    Res =  0.2879E+02
 MRCHDU: Convergence failed at 158  side 2    Res =  0.2706E+02
 MRCHDU: Convergence failed at 159  side 2    Res =  0.2567E+02
 MRCHDU: Convergence failed at 160  side 2    Res =  0.2096E+02
 MRCHDU: Convergence failed at 161  side 2    Res =  0.1862E+02
 MRCHDU: Convergence failed at 162  side 2    Res =  0.1777E+02
 MRCHDU: Convergence failed at 163  side 2    Res =  0.1717E+02
 MRCHDU: Convergence failed at 164  side 2    Res =  0.1650E+02
 MRCHDU: Convergence failed at 165  side 2    Res =  0.1610E+02
 MRCHDU: Convergence failed at 166  side 2    Res =  0.1563E+02
 MRCHDU: Convergence failed at 167  side 2    Res =  0.1499E+02
 Side 1 forced transition at x/c =  1.0000  135
 Side 2  free  transition at x/c =  0.1587   82

  32   rms: 0.4026E+00   max: -.2339E+01   T at   82  2   RLX: 0.214
       a = -6.000      CL = -0.8970
      Cm =  0.1069     CD =  0.03720   =>   CDf =  0.00589    CDp =  0.03131

 Side 1 forced transition at x/c =  1.0000  136
 Side 2  free  transition at x/c =  0.1659   81
 idif Ue xi dudx           1  5.86666465E-02  2.49350071E-03   23.527824    
 Uenew xinew           2  1.70808379E-02  7.25984573E-04

  33   rms: 0.3744E+00   max: 0.9048E+00   D at  175  2   RLX: 0.825
       a = -6.000      CL = -0.6724
      Cm = -0.0158     CD =  0.04902   =>   CDf =  0.01080    CDp =  0.03822

 Side 1 forced transition at x/c =  1.0000  135
 Side 2  free  transition at x/c =  0.1700   83

  34   rms: 0.1553E+00   max: 0.2659E+01   T at   83  2   RLX: 0.564
       a = -6.000      CL = -0.6019
      Cm = -0.0332     CD =  0.05170   =>   CDf =  0.00692    CDp =  0.04478

 Side 1 forced transition at x/c =  1.0000  135
 Side 2  free  transition at x/c =  0.1577   81

  35   rms: 0.1662E+00   max: -.7688E+00   T at   81  2   RLX: 0.650
       a = -6.000      CL = -0.5813
      Cm = -0.0356     CD =  0.06245   =>   CDf =  0.00708    CDp =  0.05538

 Side 1 forced transition at x/c =  1.0000  136
 Side 2  free  transition at x/c =  0.1627   81

  36   rms: 0.3964E+00   max: -.1689E+01   T at   81  2   RLX: 0.296
       a = -6.000      CL = -0.5749
      Cm = -0.0345     CD =  0.05759   =>   CDf =  0.00752    CDp =  0.05007

 Side 1 forced transition at x/c =  1.0000  136
 Side 2  free  transition at x/c =  0.1723   82
 idif Ue xi dudx           1  5.08627705E-02  2.19440460E-03   23.178392    
 Uenew xinew           2  9.89458803E-03  4.26888466E-04

  37   rms: 0.7042E+00   max: 0.7036E+01   T at   82  2   RLX: 0.213
       a = -6.000      CL = -0.5656
      Cm = -0.0443     CD =  0.04254   =>   CDf =  0.00673    CDp =  0.03581

 MRCHDU: Convergence failed at  93  side 2    Res =  0.1237E+01
 MRCHDU: Convergence failed at  94  side 2    Res =  0.1123E+01
 MRCHDU: Convergence failed at  95  side 2    Res =  0.1318E+01
 MRCHDU: Convergence failed at  96  side 2    Res =  0.1878E+01
 MRCHDU: Convergence failed at  97  side 2    Res =  0.2759E+01
 MRCHDU: Convergence failed at  98  side 2    Res =  0.4196E+01
 MRCHDU: Convergence failed at  99  side 2    Res =  0.6825E+01
 MRCHDU: Convergence failed at 100  side 2    Res =  0.1693E+02
 MRCHDU: Convergence failed at 101  side 2    Res =  0.1737E+03
 MRCHDU: Convergence failed at 102  side 2    Res =  0.2699E+02
 MRCHDU: Convergence failed at 103  side 2    Res =  0.1404E+02
 MRCHDU: Convergence failed at 104  side 2    Res =  0.9970E+01
 MRCHDU: Convergence failed at 105  side 2    Res =  0.7902E+01
 MRCHDU: Convergence failed at 106  side 2    Res =  0.6637E+01
 MRCHDU: Convergence failed at 107  side 2    Res =  0.5866E+01
 MRCHDU: Convergence failed at 108  side 2    Res =  0.5348E+01
 MRCHDU: Convergence failed at 109  side 2    Res =  0.5090E+01
 MRCHDU: Convergence failed at 110  side 2    Res =  0.4890E+01
 MRCHDU: Convergence failed at 111  side 2    Res =  0.4725E+01
 MRCHDU: Convergence failed at 112  side 2    Res =  0.4600E+01
 MRCHDU: Convergence failed at 113  side 2    Res =  0.4526E+01
 MRCHDU: Convergence failed at 114  side 2    Res =  0.4514E+01
 MRCHDU: Convergence failed at 115  side 2    Res =  0.4456E+01
 MRCHDU: Convergence failed at 116  side 2    Res =  0.4444E+01
 MRCHDU: Convergence failed at 117  side 2    Res =  0.4417E+01
 MRCHDU: Convergence failed at 118  side 2    Res =  0.4440E+01
 MRCHDU: Convergence failed at 119  side 2    Res =  0.4463E+01
 MRCHDU: Convergence failed at 120  side 2    Res =  0.4499E+01
 MRCHDU: Convergence failed at 121  side 2    Res =  0.4598E+01
 MRCHDU: Convergence failed at 122  side 2    Res =  0.4699E+01
 MRCHDU: Convergence failed at 123  side 2    Res =  0.4762E+01
 MRCHDU: Convergence failed at 124  side 2    Res =  0.4896E+01
 MRCHDU: Convergence failed at 125  side 2    Res =  0.4974E+01
 MRCHDU: Convergence failed at 126  side 2    Res =  0.5053E+01
 MRCHDU: Convergence failed at 127  side 2    Res =  0.5160E+01
 MRCHDU: Convergence failed at 128  side 2    Res =  0.5225E+01
 MRCHDU: Convergence failed at 129  side 2    Res =  0.5337E+01
 MRCHDU: Convergence failed at 130  side 2    Res =  0.5445E+01
 MRCHDU: Convergence failed at 131  side 2    Res =  0.5590E+01
 MRCHDU: Convergence failed at 132  side 2    Res =  0.5698E+01
 MRCHDU: Convergence failed at 133  side 2    Res =  0.5778E+01
 MRCHDU: Convergence failed at 134  side 2    Res =  0.5921E+01
 MRCHDU: Convergence failed at 135  side 2    Res =  0.6091E+01
 MRCHDU: Convergence failed at 136  side 2    Res =  0.6216E+01
 MRCHDU: Convergence failed at 137  side 2    Res =  0.6289E+01
 MRCHDU: Convergence failed at 138  side 2    Res =  0.6403E+01
 MRCHDU: Convergence failed at 139  side 2    Res =  0.6697E+01
 MRCHDU: Convergence failed at 140  side 2    Res =  0.6860E+01
 MRCHDU: Convergence failed at 141  side 2    Res =  0.6959E+01
 MRCHDU: Convergence failed at 142  side 2    Res =  0.7102E+01
 MRCHDU: Convergence failed at 143  side 2    Res =  0.7233E+01
[...]
       a = -9.000      CL = -0.3325
      Cm = -0.0311     CD =  0.11698   =>   CDf =  0.00627    CDp =  0.11071

 Side 1 forced transition at x/c =  1.0000  138
 Side 2  free  transition at x/c =  0.2307   86

 152   rms: 0.1723E-01   max: -.1888E+00   D at   86  2
       a = -9.000      CL = -0.3452
      Cm = -0.0315     CD =  0.11508   =>   CDf =  0.00636    CDp =  0.10872

 Side 1 forced transition at x/c =  1.0000  138
 Side 2  free  transition at x/c =  0.2365   87

 153   rms: 0.7959E-01   max: 0.6392E+00   D at   87  2
       a = -9.000      CL = -0.3520
      Cm = -0.0265     CD =  0.12536   =>   CDf =  0.00633    CDp =  0.11904

 Side 1 forced transition at x/c =  1.0000  138
 Side 2  free  transition at x/c =  0.2295   86

 154   rms: 0.3172E-01   max: -.3243E+00   T at   86  2
       a = -9.000      CL = -0.3324
      Cm = -0.0311     CD =  0.11700   =>   CDf =  0.00627    CDp =  0.11073

 Side 1 forced transition at x/c =  1.0000  138
 Side 2  free  transition at x/c =  0.2307   86

 155   rms: 0.1728E-01   max: -.1890E+00   D at   86  2
       a = -9.000      CL = -0.3450
      Cm = -0.0315     CD =  0.11506   =>   CDf =  0.00636    CDp =  0.10870

 Side 1 forced transition at x/c =  1.0000  138
 Side 2  free  transition at x/c =  0.2365   87

 156   rms: 0.7980E-01   max: 0.6420E+00   D at   87  2
       a = -9.000      CL = -0.3520
      Cm = -0.0265     CD =  0.12539   =>   CDf =  0.00633    CDp =  0.11907

 Side 1 forced transition at x/c =  1.0000  138
 Side 2  free  transition at x/c =  0.2295   86

 157   rms: 0.3178E-01   max: -.3256E+00   T at   86  2
       a = -9.000      CL = -0.3324
      Cm = -0.0311     CD =  0.11699   =>   CDf =  0.00627    CDp =  0.11072

 Side 1 forced transition at x/c =  1.0000  138
 Side 2  free  transition at x/c =  0.2307   86

 158   rms: 0.1731E-01   max: -.1902E+00   D at   86  2
       a = -9.000      CL = -0.3450
      Cm = -0.0315     CD =  0.11507   =>   CDf =  0.00636    CDp =  0.10871

 Side 1 forced transition at x/c =  1.0000  138
 Side 2  free  transition at x/c =  0.2365   87

 159   rms: 0.7968E-01   max: 0.6412E+00   D at   87  2
       a = -9.000      CL = -0.3519
      Cm = -0.0265     CD =  0.12538   =>   CDf =  0.00633    CDp =  0.11905

 Side 1 forced transition at x/c =  1.0000  138
 Side 2  free  transition at x/c =  0.2295   86

 160   rms: 0.3160E-01   max: -.3234E+00   T at   86  2
       a = -9.000      CL = -0.3325
      Cm = -0.0311     CD =  0.11700   =>   CDf =  0.00627    CDp =  0.11073

 Side 1 forced transition at x/c =  1.0000  138
 Side 2  free  transition at x/c =  0.2307   86

 161   rms: 0.1730E-01   max: -.1884E+00   D at   86  2
       a = -9.000      CL = -0.3451
      Cm = -0.0315     CD =  0.11506   =>   CDf =  0.00636    CDp =  0.10870

 Side 1 forced transition at x/c =  1.0000  138
 Side 2  free  transition at x/c =  0.2365   87

 162   rms: 0.7982E-01   max: 0.6417E+00   D at   87  2
       a = -9.000      CL = -0.3519
      Cm = -0.0265     CD =  0.12542   =>   CDf =  0.00633    CDp =  0.11909

 Side 1 forced transition at x/c =  1.0000  138
 Side 2  free  transition at x/c =  0.2295   86

 163   rms: 0.3166E-01   max: -.3237E+00   T at   86  2
       a = -9.000      CL = -0.3324
      Cm = -0.0311     CD =  0.11700   =>   CDf =  0.00627    CDp =  0.11073

 Side 1 forced transition at x/c =  1.0000  138
 Side 2  free  transition at x/c =  0.2307   86

 164   rms: 0.1731E-01   max: -.1887E+00   D at   86  2
       a = -9.000      CL = -0.3451
      Cm = -0.0315     CD =  0.11507   =>   CDf =  0.00636    CDp =  0.10871

 Side 1 forced transition at x/c =  1.0000  138
 Side 2  free  transition at x/c =  0.2365   87

 165   rms: 0.7977E-01   max: 0.6411E+00   D at   87  2
       a = -9.000      CL = -0.3519
      Cm = -0.0265     CD =  0.12540   =>   CDf =  0.00633    CDp =  0.11907

 Side 1 forced transition at x/c =  1.0000  138
 Side 2  free  transition at x/c =  0.2295   86

 166   rms: 0.3164E-01   max: -.3245E+00   T at   86  2
       a = -9.000      CL = -0.3325
      Cm = -0.0311     CD =  0.11699   =>   CDf =  0.00627    CDp =  0.11071

 Side 1 forced transition at x/c =  1.0000  138
 Side 2  free  transition at x/c =  0.2307   86

 167   rms: 0.1724E-01   max: -.1897E+00   D at   86  2
       a = -9.000      CL = -0.3451
      Cm = -0.0315     CD =  0.11508   =>   CDf =  0.00636    CDp =  0.10872

 Side 1 forced transition at x/c =  1.0000  138
 Side 2  free  transition at x/c =  0.2365   87

 168   rms: 0.7964E-01   max: 0.6400E+00   D at   87  2
       a = -9.000      CL = -0.3519
      Cm = -0.0265     CD =  0.12538   =>   CDf =  0.00633    CDp =  0.11905

 Side 1 forced transition at x/c =  1.0000  138
 Side 2  free  transition at x/c =  0.2295   86

 169   rms: 0.3161E-01   max: -.3250E+00   T at   86  2
       a = -9.000      CL = -0.3326
      Cm = -0.0311     CD =  0.11697   =>   CDf =  0.00627    CDp =  0.11070

 Side 1 forced transition at x/c =  1.0000  138
 Side 2  free  transition at x/c =  0.2307   86

 170   rms: 0.1712E-01   max: -.1904E+00   D at   86  2
       a = -9.000      CL = -0.3451
      Cm = -0.0315     CD =  0.11509   =>   CDf =  0.00636    CDp =  0.10874

 Side 1 forced transition at x/c =  1.0000  138
 Side 2  free  transition at x/c =  0.2365   87

 171   rms: 0.7950E-01   max: 0.6385E+00   D at   87  2
       a = -9.000      CL = -0.3520
      Cm = -0.0265     CD =  0.12535   =>   CDf =  0.00633    CDp =  0.11903

 Side 1 forced transition at x/c =  1.0000  138
 Side 2  free  transition at x/c =  0.2295   86

 172   rms: 0.3165E-01   max: -.3237E+00   T at   86  2
       a = -9.000      CL = -0.3325
      Cm = -0.0311     CD =  0.11698   =>   CDf =  0.00627    CDp =  0.11071

 Side 1 forced transition at x/c =  1.0000  138
 Side 2  free  transition at x/c =  0.2307   86

 173   rms: 0.1727E-01   max: -.1887E+00   D at   86  2
       a = -9.000      CL = -0.3451
      Cm = -0.0315     CD =  0.11507   =>   CDf =  0.00636    CDp =  0.10871

 Side 1 forced transition at x/c =  1.0000  138
 Side 2  free  transition at x/c =  0.2365   87

 174   rms: 0.7969E-01   max: 0.6403E+00   D at   87  2
       a = -9.000      CL = -0.3520
      Cm = -0.0265     CD =  0.12538   =>   CDf =  0.00633    CDp =  0.11906

 Side 1 forced transition at x/c =  1.0000  138
 Side 2  free  transition at x/c =  0.2295   86

 175   rms: 0.3173E-01   max: -.3252E+00   T at   86  2
       a = -9.000      CL = -0.3325
      Cm = -0.0311     CD =  0.11700   =>   CDf =  0.00627    CDp =  0.11073

 Side 1 forced transition at x/c =  1.0000  138
 Side 2  free  transition at x/c =  0.2307   86

 176   rms: 0.1721E-01   max: -.1903E+00   D at   86  2
       a = -9.000      CL = -0.3450
      Cm = -0.0315     CD =  0.11508   =>   CDf =  0.00636    CDp =  0.10872

 Side 1 forced transition at x/c =  1.0000  138
 Side 2  free  transition at x/c =  0.2365   87

 177   rms: 0.7974E-01   max: 0.6417E+00   D at   87  2
       a = -9.000      CL = -0.3520
      Cm = -0.0265     CD =  0.12538   =>   CDf =  0.00633    CDp =  0.11905

 Side 1 forced transition at x/c =  1.0000  138
 Side 2  free  transition at x/c =  0.2295   86

 178   rms: 0.3174E-01   max: -.3249E+00   T at   86  2
       a = -9.000      CL = -0.3324
      Cm = -0.0311     CD =  0.11700   =>   CDf =  0.00627    CDp =  0.11073

 Side 1 forced transition at x/c =  1.0000  138
 Side 2  free  transition at x/c =  0.2307   86

 179   rms: 0.1731E-01   max: -.1894E+00   D at   86  2
       a = -9.000      CL = -0.3449
      Cm = -0.0315     CD =  0.11505   =>   CDf =  0.00636    CDp =  0.10869

 Side 1 forced transition at x/c =  1.0000  138
 Side 2  free  transition at x/c =  0.2365   87

 180   rms: 0.7974E-01   max: 0.6421E+00   D at   87  2
       a = -9.000      CL = -0.3518
      Cm = -0.0265     CD =  0.12538   =>   CDf =  0.00633    CDp =  0.11906

 Side 1 forced transition at x/c =  1.0000  138
 Side 2  free  transition at x/c =  0.2295   86

 181   rms: 0.3163E-01   max: -.3248E+00   T at   86  2
       a = -9.000      CL = -0.3324
      Cm = -0.0311     CD =  0.11698   =>   CDf =  0.00627    CDp =  0.11070

 Side 1 forced transition at x/c =  1.0000  138
 Side 2  free  transition at x/c =  0.2307   86

 182   rms: 0.1729E-01   max: -.1897E+00   D at   86  2
       a = -9.000      CL = -0.3451
      Cm = -0.0315     CD =  0.11507   =>   CDf =  0.00636    CDp =  0.10871

 Side 1 forced transition at x/c =  1.0000  138
 Side 2  free  transition at x/c =  0.2365   87

 183   rms: 0.7969E-01   max: 0.6406E+00   D at   87  2
       a = -9.000      CL = -0.3520
      Cm = -0.0265     CD =  0.12539   =>   CDf =  0.00633    CDp =  0.11906

 Side 1 forced transition at x/c =  1.0000  138
 Side 2  free  transition at x/c =  0.2295   86

 184   rms: 0.3171E-01   max: -.3248E+00   T at   86  2
       a = -9.000      CL = -0.3324
      Cm = -0.0311     CD =  0.11700   =>   CDf =  0.00627    CDp =  0.11072

 Side 1 forced transition at x/c =  1.0000  138
 Side 2  free  transition at x/c =  0.2307   86

 185   rms: 0.1726E-01   max: -.1897E+00   D at   86  2
       a = -9.000      CL = -0.3450
      Cm = -0.0315     CD =  0.11507   =>   CDf =  0.00636    CDp =  0.10871

 Side 1 forced transition at x/c =  1.0000  138
 Side 2  free  transition at x/c =  0.2365   87

 186   rms: 0.7978E-01   max: 0.6421E+00   D at   87  2
       a = -9.000      CL = -0.3519
      Cm = -0.0265     CD =  0.12539   =>   CDf =  0.00633    CDp =  0.11907

 Side 1 forced transition at x/c =  1.0000  138
 Side 2  free  transition at x/c =  0.2295   86

 187   rms: 0.3167E-01   max: -.3245E+00   T at   86  2
       a = -9.000      CL = -0.3324
      Cm = -0.0311     CD =  0.11698   =>   CDf =  0.00627    CDp =  0.11071

 Side 1 forced transition at x/c =  1.0000  138
 Side 2  free  transition at x/c =  0.2307   86

 188   rms: 0.1732E-01   max: -.1893E+00   D at   86  2
       a = -9.000      CL = -0.3451
      Cm = -0.0315     CD =  0.11506   =>   CDf =  0.00636    CDp =  0.10871

 Side 1 forced transition at x/c =  1.0000  138
 Side 2  free  transition at x/c =  0.2365   87

 189   rms: 0.7971E-01   max: 0.6408E+00   D at   87  2
       a = -9.000      CL = -0.3520
      Cm = -0.0265     CD =  0.12539   =>   CDf =  0.00633    CDp =  0.11906

 Side 1 forced transition at x/c =  1.0000  138
 Side 2  free  transition at x/c =  0.2295   86

 190   rms: 0.3173E-01   max: -.3248E+00   T at   86  2
       a = -9.000      CL = -0.3324
      Cm = -0.0311     CD =  0.11700   =>   CDf =  0.00627    CDp =  0.11073

 Side 1 forced transition at x/c =  1.0000  138
 Side 2  free  transition at x/c =  0.2307   86

 191   rms: 0.1726E-01   max: -.1897E+00   D at   86  2
       a = -9.000      CL = -0.3450
      Cm = -0.0315     CD =  0.11506   =>   CDf =  0.00636    CDp =  0.10870

 Side 1 forced transition at x/c =  1.0000  138
 Side 2  free  transition at x/c =  0.2365   87

 192   rms: 0.7965E-01   max: 0.6409E+00   D at   87  2
       a = -9.000      CL = -0.3519
      Cm = -0.0265     CD =  0.12537   =>   CDf =  0.00633    CDp =  0.11905

 Side 1 forced transition at x/c =  1.0000  138
 Side 2  free  transition at x/c =  0.2295   86

 193   rms: 0.3160E-01   max: -.3224E+00   T at   86  2
       a = -9.000      CL = -0.3324
      Cm = -0.0311     CD =  0.11699   =>   CDf =  0.00627    CDp =  0.11071

 Side 1 forced transition at x/c =  1.0000  138
 Side 2  free  transition at x/c =  0.2307   86

 194   rms: 0.1743E-01   max: -.1872E+00   D at   86  2
       a = -9.000      CL = -0.3451
      Cm = -0.0315     CD =  0.11504   =>   CDf =  0.00636    CDp =  0.10869

 Side 1 forced transition at x/c =  1.0000  138
 Side 2  free  transition at x/c =  0.2365   87

 195   rms: 0.8001E-01   max: 0.6432E+00   D at   87  2
       a = -9.000      CL = -0.3520
      Cm = -0.0265     CD =  0.12543   =>   CDf =  0.00633    CDp =  0.11910

 Side 1 forced transition at x/c =  1.0000  138
 Side 2  free  transition at x/c =  0.2295   86

 196   rms: 0.3184E-01   max: -.3241E+00   T at   86  2
       a = -9.000      CL = -0.3324
      Cm = -0.0310     CD =  0.11703   =>   CDf =  0.00627    CDp =  0.11076

 Side 1 forced transition at x/c =  1.0000  138
 Side 2  free  transition at x/c =  0.2307   86

 197   rms: 0.1741E-01   max: -.1883E+00   D at   86  2
       a = -9.000      CL = -0.3449
      Cm = -0.0315     CD =  0.11503   =>   CDf =  0.00636    CDp =  0.10867

 Side 1 forced transition at x/c =  1.0000  138
 Side 2  free  transition at x/c =  0.2366   87

 198   rms: 0.7991E-01   max: 0.6437E+00   D at   87  2
       a = -9.000      CL = -0.3520
      Cm = -0.0265     CD =  0.12540   =>   CDf =  0.00633    CDp =  0.11907

 Side 1 forced transition at x/c =  1.0000  138
 Side 2  free  transition at x/c =  0.2295   86

 199   rms: 0.3189E-01   max: -.3265E+00   T at   86  2
       a = -9.000      CL = -0.3323
      Cm = -0.0311     CD =  0.11701   =>   CDf =  0.00627    CDp =  0.11074

 Side 1 forced transition at x/c =  1.0000  138
 Side 2  free  transition at x/c =  0.2307   86

 200   rms: 0.1740E-01   max: -.1907E+00   D at   86  2
       a = -9.000      CL = -0.3449
      Cm = -0.0315     CD =  0.11505   =>   CDf =  0.00636    CDp =  0.10869
 VISCAL:  Convergence failed

.OPERva   c>  
.OPERva   c>  
.OPERva   c>   Calculating wake trajectory ...
 Array size (IWX) too small.  Last wake point index reduced.
 Calculating source influence matrix ...

 Solving BL system ...

 Side 1 forced transition at x/c =  1.0000  138
 Side 2  free  transition at x/c =  0.2365   87
 idif Ue xi dudx           1  8.68501887E-02  3.27515602E-03   26.517878    
 Uenew xinew           2  4.27580848E-02  1.61242485E-03

   1   rms: 0.1760E+00   max: 0.2246E+01   T at   87  2   RLX: 0.668
       a =-10.000      CL = -0.3731
      Cm = -0.0377     CD =  0.12625   =>   CDf =  0.00636    CDp =  0.11990

 Side 1 forced transition at x/c =  1.0000  137
 Side 2  free  transition at x/c =  0.2179   86

   2   rms: 0.1673E+00   max: 0.6156E+00   T at   86  2
       a =-10.000      CL = -0.2846
      Cm = -0.0314     CD =  0.14116   =>   CDf =  0.00633    CDp =  0.13483

 Side 1 forced transition at x/c =  1.0000  138
 Side 2  free  transition at x/c =  0.2112   84
 idif Ue xi dudx           1  4.33505885E-02  1.72066689E-03   25.194061    
 Uenew xinew           2  1.45963591E-03  5.79357147E-05

   3   rms: 0.4481E-01   max: -.2619E+00   D at   86  2
       a =-10.000      CL = -0.2968
      Cm = -0.0384     CD =  0.11960   =>   CDf =  0.00675    CDp =  0.11285

 Side 1 forced transition at x/c =  1.0000  137
 Side 2  free  transition at x/c =  0.2120   85

   4   rms: 0.3350E-01   max: -.1780E+00   D at    2  2
       a =-10.000      CL = -0.3254
      Cm = -0.0378     CD =  0.12181   =>   CDf =  0.00676    CDp =  0.11505

 Side 1 forced transition at x/c =  1.0000  137
 Side 2  free  transition at x/c =  0.2151   86

   5   rms: 0.6217E-01   max: 0.4357E+00   D at   86  2
       a =-10.000      CL = -0.3266
      Cm = -0.0345     CD =  0.13236   =>   CDf =  0.00667    CDp =  0.12569

 Side 1 forced transition at x/c =  1.0000  137
 Side 2  free  transition at x/c =  0.2115   85

   6   rms: 0.2447E-01   max: -.2082E+00   T at   85  2
       a =-10.000      CL = -0.3135
      Cm = -0.0386     CD =  0.12405   =>   CDf =  0.00660    CDp =  0.11744

 Side 1 forced transition at x/c =  1.0000  137
 Side 2  free  transition at x/c =  0.2121   85

   7   rms: 0.8649E-02   max: -.9559E-01   D at   85  2
       a =-10.000      CL = -0.3240
      Cm = -0.0372     CD =  0.12392   =>   CDf =  0.00667    CDp =  0.11724

 Side 1 forced transition at x/c =  1.0000  137
 Side 2  free  transition at x/c =  0.2146   86

   8   rms: 0.5329E-01   max: 0.3625E+00   D at   86  2
       a =-10.000      CL = -0.3272
      Cm = -0.0349     CD =  0.13100   =>   CDf =  0.00664    CDp =  0.12436

 Side 1 forced transition at x/c =  1.0000  137
 Side 2  free  transition at x/c =  0.2117   85

   9   rms: 0.2024E-01   max: -.1248E+00   T at   85  2
       a =-10.000      CL = -0.3191
      Cm = -0.0370     CD =  0.12511   =>   CDf =  0.00660    CDp =  0.11851

 Side 1 forced transition at x/c =  1.0000  137
 Side 2  free  transition at x/c =  0.2123   86

  10   rms: 0.3457E-01   max: -.2203E+00   T at   86  2
       a =-10.000      CL = -0.2990
      Cm = -0.0363     CD =  0.12314   =>   CDf =  0.00661    CDp =  0.11653

 Side 1 forced transition at x/c =  1.0000  138
 Side 2  free  transition at x/c =  0.2133   85

  11   rms: 0.8655E-02   max: -.3674E-01   D at   85  2
       a =-10.000      CL = -0.2980
      Cm = -0.0369     CD =  0.12079   =>   CDf =  0.00671    CDp =  0.11408

 Side 1 forced transition at x/c =  1.0000  138
 Side 2  free  transition at x/c =  0.2136   85
 idif Ue xi dudx           1  4.48898785E-02  1.78074837E-03   25.208435    
 Uenew xinew           2  2.97502894E-03  1.18017197E-04

  12   rms: 0.6782E-02   max: 0.4086E-01   T at   85  2
       a =-10.000      CL = -0.3034
      Cm = -0.0367     CD =  0.12189   =>   CDf =  0.00677    CDp =  0.11512

 Side 1 forced transition at x/c =  1.0000  137
 Side 2  free  transition at x/c =  0.2133   86

  13   rms: 0.1057E-02   max: 0.7288E-02   C at  137  1
       a =-10.000      CL = -0.3033
      Cm = -0.0366     CD =  0.12237   =>   CDf =  0.00672    CDp =  0.11565

 Side 1 forced transition at x/c =  1.0000  137
 Side 2  free  transition at x/c =  0.2133   86

  14   rms: 0.3498E-03   max: -.4148E-02   D at    3  2
       a =-10.000      CL = -0.3035
      Cm = -0.0366     CD =  0.12239   =>   CDf =  0.00671    CDp =  0.11568

 Side 1 forced transition at x/c =  1.0000  137
 Side 2  free  transition at x/c =  0.2133   86

  15   rms: 0.4017E-04   max: 0.2861E-03   C at  137  1
       a =-10.000      CL = -0.3035
      Cm = -0.0366     CD =  0.12241   =>   CDf =  0.00671    CDp =  0.11570
 plradd ia,ip,cpol            8         136  5.08852862E-03

 Point added to stored polar  1
 Save file unspecified or not available
 Dump file unspecified or not available

.OPERva   c>  
.OPERva   c>  
.OPERva   c>  
        airfoil                    Re           Mach       Ncrit  XtripT  XtripB     file
       ------------------------  ------------  ----------  -----  ------  ------    -------------------
 >  1  NACA 4415                 6.000e4       0.000        9.00   1.000   1.000    

Enter polar output filename   s>  
.OPERva   c>  
 ==============================================================
 Polar  1
  
       XFOIL         Version 6.99
  
 Calculated polar for: NACA 4415                                       
  
 1 1 Reynolds number fixed          Mach number fixed         
  
 xtrf =   1.000 (top)        1.000 (bottom)  
 Mach =   0.000     Re =     0.060 e 6     Ncrit =   9.000
  
   alpha    CL        CD       CDp       CM     Top_Xtr  Bot_Xtr
  ------ -------- --------- --------- -------- -------- --------
  -1.000   0.1074   0.03521   0.02624  -0.0829   0.8433   0.5382
  -2.000  -0.0239   0.03647   0.02655  -0.0790   0.8815   0.3434
  -3.000  -0.1672   0.03811   0.02816  -0.0715   0.9222   0.2510
  -4.000  -0.3269   0.04173   0.03267  -0.0596   0.9622   0.1955
  -5.000  -0.5014   0.05398   0.04698  -0.0384   0.9985   0.1694
  -7.000  -0.4048   0.10094   0.09525  -0.0113   1.0000   0.2794
  -8.000  -0.3433   0.10663   0.10054  -0.0221   1.0000   0.2567
 -10.000  -0.3035   0.12241   0.11570  -0.0366   1.0000   0.2133

.OPERva   c>  
 XFOIL   c>  