
 ===================================================
  XFOIL Version 6.99
  Copyright (C) 2000   Mark Drela, Harold Youngren

  This software comes with ABSOLUTELY NO WARRANTY,
    subject to the GNU General Public License.

  Caveat computor
 ===================================================

 File  xfoil.def  not found

   QUIT    Exit program

  .OPER    Direct operating point(s)
  .MDES    Complex mapping design routine
  .QDES    Surface speed design routine
  .GDES    Geometry design routine

   SAVE f  Write airfoil to labeled coordinate file
   PSAV f  Write airfoil to plain coordinate file
   ISAV f  Write airfoil to ISES coordinate file
   MSAV f  Write airfoil to MSES coordinate file
   REVE    Reverse written-airfoil node ordering

   LOAD f  Read buffer airfoil from coordinate file
   NACA i  Set NACA 4,5-digit airfoil and buffer airfoil
   INTE    Set buffer airfoil by interpolating two airfoils
   NORM    Buffer airfoil normalization toggle
   XYCM rr Change CM reference location, currently  0.25000 0.00000

   BEND    Display structural properties of current airfoil

   PCOP    Set current-airfoil panel nodes directly from buffer airfoil points
   PANE    Set current-airfoil panel nodes ( 160 ) based on curvature
  .PPAR    Show/change paneling

  .PLOP    Plotting options

   WDEF f  Write  current-settings file
   RDEF f  Reread current-settings file
   NAME s  Specify new airfoil name
   NINC    Increment name version number

   Z       Zoom    | (available in all menus)
   U       Unzoom  | 

 XFOIL   c>   Max thickness =     0.120035  at x =   0.300
 Max camber    =     0.000000  at x =   0.013

 Buffer airfoil set using 331 points

 Blunt trailing edge.  Gap =  0.00252

 Paneling parameters used...
   Number of panel nodes       160
   Panel bunching parameter    1.000
   TE/LE panel density ratio   0.150
   Refined-area/LE panel density ratio    0.200
   Top    side refined area x/c limits  1.000 1.000
   Bottom side refined area x/c limits  1.000 1.000

 XFOIL   c>  
 Blunt trailing edge.  Gap =  0.00252

 Paneling parameters used...
   Number of panel nodes       160
   Panel bunching parameter    1.000
   TE/LE panel density ratio   0.150
   Refined-area/LE panel density ratio    0.200
   Top    side refined area x/c limits  1.000 1.000
   Bottom side refined area x/c limits  1.000 1.000

 XFOIL   c>  
    Present paneling parameters...
  N  i   Number of panel nodes       160
  P  r   Panel bunching parameter    1.000
  T  r   TE/LE panel density ratio   0.150
  R  r   Refined area/LE  panel density ratio   0.200
  XT rr  Top    side refined area x/c limits    1.000 1.000
  XB rr  Bottom side refined area x/c limits    1.000 1.000
  Z oom
  U nzoom

Change what ? (<cr> if nothing else)   c>  
Enter number of panel nodes   i>  
Change what ? (<cr> if nothing else)   c>  
 Blunt trailing edge.  Gap =  0.00252

 Maximum panel corner angle =  3.639   at  i,x,y  = 148   0.0002   0.0024

    Present paneling parameters...
  N  i   Number of panel nodes       300
  P  r   Panel bunching parameter    1.000
  T  r   TE/LE panel density ratio   0.150
  R  r   Refined area/LE  panel density ratio   0.200
  XT rr  Top    side refined area x/c limits    1.000 1.000
  XB rr  Bottom side refined area x/c limits    1.000 1.000
  Z oom
  U nzoom

Change what ? (<cr> if nothing else)   c>  
 XFOIL   c>  
.OPERi   c>   Current iteration limit:          10

Enter new iteration limit   i>  
.OPERi   c>  
 XFOIL   c>  
 XFOIL   c>  
 XFOIL   c>  
.OPERi   c>  
.OPERi   c>  
.OPERi   c>  
 M  =    0.0000
 Re =     60000

.OPERv   c>  
 Polar  1 newly created for accumulation
 Airfoil archived with polar: NACA 0012                                       

Enter  polar save filename  OR  <return> for no file   s>  
 Polar save file will NOT be written

Enter  polar dump filename  OR  <return> for no file   s>  
 Polar dump file will NOT be written

 Polar accumulation enabled

.OPERva   c>   Calculating unit vorticity distributions ...
 Calculating wake trajectory ...
 Array size (IWX) too small.  Last wake point index reduced.
 Calculating source influence matrix ...

 Solving BL system ...

 Initializing BL ...
    side            1  ...
 MRCHUE: Inverse mode at 111     Hk =   3.800
 MRCHUE: Inverse mode at 112     Hk =   3.904
 MRCHUE: Inverse mode at 113     Hk =   4.008
 MRCHUE: Inverse mode at 114     Hk =   4.111
 MRCHUE: Inverse mode at 115     Hk =   4.212
 MRCHUE: Inverse mode at 116     Hk =   4.313
 MRCHUE: Inverse mode at 117     Hk =   4.413
 MRCHUE: Inverse mode at 118     Hk =   4.512
 MRCHUE: Inverse mode at 119     Hk =   4.611
 MRCHUE: Inverse mode at 120     Hk =   4.708
 MRCHUE: Inverse mode at 121     Hk =   4.805
 MRCHUE: Inverse mode at 122     Hk =   4.901
 MRCHUE: Inverse mode at 123     Hk =   4.997
 MRCHUE: Inverse mode at 124     Hk =   5.092
 MRCHUE: Inverse mode at 125     Hk =   5.186
 MRCHUE: Inverse mode at 126     Hk =   5.280
 MRCHUE: Inverse mode at 127     Hk =   5.373
 MRCHUE: Inverse mode at 128     Hk =   5.465
 MRCHUE: Inverse mode at 129     Hk =   5.557
 MRCHUE: Inverse mode at 130     Hk =   5.649
 MRCHUE: Inverse mode at 131     Hk =   5.740
 MRCHUE: Inverse mode at 132     Hk =   5.830
 MRCHUE: Inverse mode at 133     Hk =   5.919
 MRCHUE: Inverse mode at 134     Hk =   6.008
 MRCHUE: Inverse mode at 135     Hk =   6.097
 MRCHUE: Inverse mode at 136     Hk =   6.184
 MRCHUE: Inverse mode at 137     Hk =   6.270
 MRCHUE: Inverse mode at 138     Hk =   6.355
 MRCHUE: Inverse mode at 139     Hk =   6.439
 MRCHUE: Inverse mode at 140     Hk =   6.520
 MRCHUE: Inverse mode at 141     Hk =   6.598
 MRCHUE: Inverse mode at 142     Hk =   6.673
 MRCHUE: Inverse mode at 143     Hk =   6.744
 MRCHUE: Inverse mode at 144     Hk =   6.811
 MRCHUE: Inverse mode at 145     Hk =   6.872
 MRCHUE: Inverse mode at 146     Hk =   6.928
 MRCHUE: Inverse mode at 147     Hk =   6.979
 MRCHUE: Inverse mode at 148     Hk =   7.010
    side            2  ...
 MRCHUE: Inverse mode at  98     Hk =   3.825
 MRCHUE: Inverse mode at  99     Hk =   3.944
 MRCHUE: Inverse mode at 100     Hk =   4.061
 MRCHUE: Inverse mode at 101     Hk =   4.178
 MRCHUE: Inverse mode at 102     Hk =   4.293
 MRCHUE: Inverse mode at 103     Hk =   4.408
 MRCHUE: Inverse mode at 104     Hk =   4.521
 MRCHUE: Inverse mode at 105     Hk =   4.633
 MRCHUE: Inverse mode at 106     Hk =   4.744
 MRCHUE: Inverse mode at 107     Hk =   4.854
 MRCHUE: Inverse mode at 108     Hk =   4.964
 MRCHUE: Inverse mode at 109     Hk =   5.072
 MRCHUE: Inverse mode at 110     Hk =   5.180
 MRCHUE: Inverse mode at 111     Hk =   5.287
 MRCHUE: Inverse mode at 112     Hk =   5.393
 MRCHUE: Inverse mode at 113     Hk =   5.498
 MRCHUE: Inverse mode at 114     Hk =   5.603
 MRCHUE: Inverse mode at 115     Hk =   5.707
 MRCHUE: Inverse mode at 116     Hk =   5.810
 MRCHUE: Inverse mode at 117     Hk =   5.913
 MRCHUE: Inverse mode at 118     Hk =   6.015
 MRCHUE: Inverse mode at 119     Hk =   6.116
 MRCHUE: Inverse mode at 120     Hk =   6.217
 MRCHUE: Inverse mode at 121     Hk =   6.317
 MRCHUE: Inverse mode at 122     Hk =   6.417
 MRCHUE: Inverse mode at 123     Hk =   6.516
 MRCHUE: Inverse mode at 124     Hk =   6.615
 MRCHUE: Inverse mode at 125     Hk =   6.713
 MRCHUE: Inverse mode at 126     Hk =   6.811
 MRCHUE: Inverse mode at 127     Hk =   6.909
 MRCHUE: Inverse mode at 128     Hk =   7.005
 MRCHUE: Inverse mode at 129     Hk =   7.102
 MRCHUE: Inverse mode at 130     Hk =   7.198
 MRCHUE: Inverse mode at 131     Hk =   7.293
 MRCHUE: Inverse mode at 132     Hk =   7.388
 MRCHUE: Inverse mode at 133     Hk =   7.483
 MRCHUE: Inverse mode at 134     Hk =   7.577
 MRCHUE: Inverse mode at 135     Hk =   7.671
 MRCHUE: Inverse mode at 136     Hk =   7.764
 MRCHUE: Inverse mode at 137     Hk =   7.857
 MRCHUE: Inverse mode at 138     Hk =   7.949
 MRCHUE: Inverse mode at 139     Hk =   8.041
 MRCHUE: Inverse mode at 140     Hk =   8.133
 MRCHUE: Inverse mode at 141     Hk =   8.223
 MRCHUE: Inverse mode at 142     Hk =   8.313
 MRCHUE: Inverse mode at 143     Hk =   8.402
 MRCHUE: Inverse mode at 144     Hk =   8.490
 MRCHUE: Inverse mode at 145     Hk =   8.576
 MRCHUE: Inverse mode at 146     Hk =   8.660
 MRCHUE: Inverse mode at 147     Hk =   8.741
 MRCHUE: Inverse mode at 148     Hk =   8.819
 MRCHUE: Inverse mode at 149     Hk =   8.893
 MRCHUE: Inverse mode at 150     Hk =   8.962
 MRCHUE: Inverse mode at 151     Hk =   9.025
 MRCHUE: Inverse mode at 152     Hk =   9.083
 MRCHUE: Inverse mode at 153     Hk =   9.136
 MRCHUE: Inverse mode at 154     Hk =   9.168
 MRCHUE: Inverse mode at 156     Hk =   6.041
 MRCHUE: Inverse mode at 157     Hk =   4.995
 MRCHUE: Inverse mode at 158     Hk =   4.352
 MRCHUE: Inverse mode at 159     Hk =   3.914
 MRCHUE: Inverse mode at 160     Hk =   3.592
 MRCHUE: Inverse mode at 161     Hk =   3.344
 MRCHUE: Inverse mode at 162     Hk =   3.144
 MRCHUE: Inverse mode at 163     Hk =   2.980

 Side 1 forced transition at x/c =  1.0000  148
 Side 2 forced transition at x/c =  1.0000  154

   1   rms: 0.4462E+00   max: 0.3856E+01   D at  164  2   RLX: 0.389
       a = -1.000      CL = -0.0678
      Cm =  0.0032     CD =  0.00833   =>   CDf =  0.00873    CDp = -0.00041

 Side 1 forced transition at x/c =  1.0000  149
 Side 2 forced transition at x/c =  1.0000  153

   2   rms: 0.2146E+00   max: 0.1507E+01   D at  166  2   RLX: 0.834
       a = -1.000      CL =  0.0107
      Cm = -0.0130     CD =  0.01404   =>   CDf =  0.00908    CDp =  0.00496

 MRCHDU: Convergence failed at 163  side 2    Res =  0.1081E+02
 MRCHDU: Convergence failed at 164  side 2    Res =  0.2135E+01
 MRCHDU: Convergence failed at 165  side 2    Res =  0.2816E+01
 MRCHDU: Convergence failed at 166  side 2    Res =  0.8211E+01
 MRCHDU: Convergence failed at 167  side 2    Res =  0.9808E+01
 MRCHDU: Convergence failed at 168  side 2    Res =  0.3276E+01
 Side 1 forced transition at x/c =  1.0000  150
 Side 2 forced transition at x/c =  1.0000  152

   3   rms: 0.7513E-01   max: 0.4838E+00   D at  162  2
       a = -1.000      CL =  0.0432
      Cm = -0.0174     CD =  0.01919   =>   CDf =  0.00929    CDp =  0.00990

 Side 1 forced transition at x/c =  1.0000  150
 Side 2  free  transition at x/c =  0.9866  150

   4   rms: 0.4123E-01   max: 0.2885E+00   C at  150  1
       a = -1.000      CL =  0.0070
      Cm = -0.0109     CD =  0.02059   =>   CDf =  0.00907    CDp =  0.01152

 Side 1 forced transition at x/c =  1.0000  150
 Side 2  free  transition at x/c =  0.9915  150

   5   rms: 0.4972E-02   max: 0.5155E-01   C at  150  1
       a = -1.000      CL =  0.0036
      Cm = -0.0103     CD =  0.02072   =>   CDf =  0.00898    CDp =  0.01173

 Side 1 forced transition at x/c =  1.0000  150
 Side 2  free  transition at x/c =  0.9918  151

   6   rms: 0.9896E-03   max: 0.7033E-02   D at  164  2
       a = -1.000      CL =  0.0034
      Cm = -0.0103     CD =  0.02071   =>   CDf =  0.00896    CDp =  0.01174

 Side 1 forced transition at x/c =  1.0000  150
 Side 2  free  transition at x/c =  0.9917  151

   7   rms: 0.2106E-04   max: -.1204E-03   D at  171  2
       a = -1.000      CL =  0.0034
      Cm = -0.0103     CD =  0.02071   =>   CDf =  0.00896    CDp =  0.01175
 plradd ia,ip,cpol            1         149  9.03211161E-02

 Point added to stored polar  1
 Save file unspecified or not available
 Dump file unspecified or not available

.OPERva   c>  
.OPERva   c>  
.OPERva   c>   Calculating wake trajectory ...
 Array size (IWX) too small.  Last wake point index reduced.
 Calculating source influence matrix ...

 Solving BL system ...

 Side 1 forced transition at x/c =  1.0000  150
 Side 2  free  transition at x/c =  0.9917  151
 idif Ue xi dudx           5  0.42650062      5.36239147E-03   79.535522    
 Uenew xinew           6  0.34888607      4.38654423E-03

   1   rms: 0.3258E+00   max: 0.1379E+01   T at  151  2   RLX: 0.884
       a = -2.000      CL = -0.2850
      Cm =  0.0307     CD =  0.02417   =>   CDf =  0.00903    CDp =  0.01515

 MRCHDU: Convergence failed at 167  side 2    Res =  0.2914E+01
 MRCHDU: Convergence failed at 168  side 2    Res =  0.1387E+01
 MRCHDU: Convergence failed at 169  side 2    Res =  0.1348E+01
 Side 1 forced transition at x/c =  1.0000  145
 Side 2  free  transition at x/c =  0.9259  147

   2   rms: 0.6863E-01   max: 0.4875E+00   T at  147  2
       a = -2.000      CL = -0.3109
      Cm =  0.0300     CD =  0.02206   =>   CDf =  0.00865    CDp =  0.01341

 Side 1 forced transition at x/c =  1.0000  145
 Side 2  free  transition at x/c =  0.8913  143

   3   rms: 0.2022E-01   max: -.3093E+00   D at  146  2
       a = -2.000      CL = -0.3184
      Cm =  0.0304     CD =  0.02119   =>   CDf =  0.00841    CDp =  0.01278

 Side 1 forced transition at x/c =  1.0000  145
 Side 2  free  transition at x/c =  0.8943  143

   4   rms: 0.1619E-02   max: 0.1434E-01   D at  152  2
       a = -2.000      CL = -0.3176
      Cm =  0.0303     CD =  0.02124   =>   CDf =  0.00838    CDp =  0.01286

 Side 1 forced transition at x/c =  1.0000  145
 Side 2  free  transition at x/c =  0.8939  143

   5   rms: 0.4316E-04   max: -.2753E-03   D at  149  2
       a = -2.000      CL = -0.3176
      Cm =  0.0303     CD =  0.02123   =>   CDf =  0.00838    CDp =  0.01286
 plradd ia,ip,cpol            2         144  2.88434848E-02

 Point added to stored polar  1
 Save file unspecified or not available
 Dump file unspecified or not available

.OPERva   c>  
.OPERva   c>  
.OPERva   c>   Calculating wake trajectory ...
 Array size (IWX) too small.  Last wake point index reduced.
 Calculating source influence matrix ...

 Solving BL system ...

 Side 1 forced transition at x/c =  1.0000  145
 Side 2  free  transition at x/c =  0.8939  143
 idif Ue xi dudx           4  0.34296384      4.94420528E-03   69.366829    
 Uenew xinew           5  0.26709419      3.85046005E-03

   1   rms: 0.2859E+00   max: 0.1493E+01   T at  143  2   RLX: 0.839
       a = -3.000      CL = -0.5258
      Cm =  0.0484     CD =  0.01951   =>   CDf =  0.00823    CDp =  0.01127

 MRCHDU: Convergence failed at 147  side 2    Res =  0.6026E+01
 MRCHDU: Convergence failed at 148  side 2    Res =  0.3090E+01
 MRCHDU: Convergence failed at 149  side 2    Res =  0.2304E+01
 MRCHDU: Convergence failed at 150  side 2    Res =  0.3608E+01
 MRCHDU: Convergence failed at 151  side 2    Res =  0.7926E+01
 MRCHDU: Convergence failed at 152  side 2    Res =  0.6854E+02
 MRCHDU: Convergence failed at 153  side 2    Res =  0.1699E+02
 MRCHDU: Convergence failed at 154  side 2    Res =  0.1035E+02
 MRCHDU: Convergence failed at 155  side 2    Res =  0.8917E+01
 MRCHDU: Convergence failed at 156  side 2    Res =  0.7817E+01
 MRCHDU: Convergence failed at 157  side 2    Res =  0.7300E+01
 MRCHDU: Convergence failed at 158  side 2    Res =  0.7025E+01
 MRCHDU: Convergence failed at 159  side 2    Res =  0.6915E+01
 MRCHDU: Convergence failed at 160  side 2    Res =  0.6884E+01
 MRCHDU: Convergence failed at 161  side 2    Res =  0.6938E+01
 Side 1 forced transition at x/c =  1.0000  141
 Side 2  free  transition at x/c =  0.7820  134

   2   rms: 0.1464E+00   max: 0.5284E+00   D at  173  2
       a = -3.000      CL = -0.3959
      Cm =  0.0200     CD =  0.02080   =>   CDf =  0.00778    CDp =  0.01302

 Side 1 forced transition at x/c =  1.0000  142
 Side 2  free  transition at x/c =  0.7705  132

   3   rms: 0.7350E-01   max: 0.4822E+00   C at  142  1
       a = -3.000      CL = -0.4579
      Cm =  0.0296     CD =  0.01967   =>   CDf =  0.00846    CDp =  0.01121

 Side 1 forced transition at x/c =  1.0000  142
 Side 2  free  transition at x/c =  0.7624  131

   4   rms: 0.1145E-01   max: 0.6183E-01   D at  129  1
       a = -3.000      CL = -0.4627
      Cm =  0.0300     CD =  0.01981   =>   CDf =  0.00821    CDp =  0.01160

 Side 1 forced transition at x/c =  1.0000  142
 Side 2  free  transition at x/c =  0.7617  131

   5   rms: 0.8827E-03   max: 0.3988E-02   D at  125  1
       a = -3.000      CL = -0.4633
      Cm =  0.0300     CD =  0.01980   =>   CDf =  0.00816    CDp =  0.01165

 Side 1 forced transition at x/c =  1.0000  142
 Side 2  free  transition at x/c =  0.7617  131

   6   rms: 0.4207E-04   max: -.1921E-03   D at  136  2
       a = -3.000      CL = -0.4633
      Cm =  0.0300     CD =  0.01980   =>   CDf =  0.00815    CDp =  0.01165
 plradd ia,ip,cpol            3         141  1.64575633E-02

 Point added to stored polar  1
 Save file unspecified or not available
 Dump file unspecified or not available

.OPERva   c>  
.OPERva   c>  
.OPERva   c>   Calculating wake trajectory ...
 Array size (IWX) too small.  Last wake point index reduced.
 Calculating source influence matrix ...

 Solving BL system ...

 Side 1 forced transition at x/c =  1.0000  142
 Side 2  free  transition at x/c =  0.7617  131
 idif Ue xi dudx           2  0.21185611      3.47793102E-03   60.914410    
 Uenew xinew           3  0.13957451      2.29132175E-03

   1   rms: 0.1842E+00   max: 0.1525E+01   T at  131  2   RLX: 0.984
       a = -4.000      CL = -0.5291
      Cm =  0.0187     CD =  0.01998   =>   CDf =  0.00805    CDp =  0.01193

 MRCHDU: Convergence failed at 133  side 2    Res =  0.8316E+00
 MRCHDU: Convergence failed at 134  side 2    Res =  0.1353E+01
 MRCHDU: Convergence failed at 135  side 2    Res =  0.3586E+01
 MRCHDU: Convergence failed at 136  side 2    Res =  0.1401E+02
 MRCHDU: Convergence failed at 137  side 2    Res =  0.3916E+01
 MRCHDU: Convergence failed at 139  side 2    Res =  0.1838E+01
 MRCHDU: Convergence failed at 140  side 2    Res =  0.1726E+01
 MRCHDU: Convergence failed at 141  side 2    Res =  0.1493E+01
 MRCHDU: Convergence failed at 142  side 2    Res =  0.1447E+01
 MRCHDU: Convergence failed at 143  side 2    Res =  0.1429E+01
 MRCHDU: Convergence failed at 144  side 2    Res =  0.1434E+01
 MRCHDU: Convergence failed at 145  side 2    Res =  0.1454E+01
 MRCHDU: Convergence failed at 146  side 2    Res =  0.1984E+01
 MRCHDU: Convergence failed at 147  side 2    Res =  0.2021E+01
 MRCHDU: Convergence failed at 148  side 2    Res =  0.2200E+01
 MRCHDU: Convergence failed at 149  side 2    Res =  0.2419E+01
 MRCHDU: Convergence failed at 150  side 2    Res =  0.2676E+01
 MRCHDU: Convergence failed at 151  side 2    Res =  0.2952E+01
 MRCHDU: Convergence failed at 152  side 2    Res =  0.3272E+01
 MRCHDU: Convergence failed at 153  side 2    Res =  0.3721E+01
 MRCHDU: Convergence failed at 154  side 2    Res =  0.4136E+01
 MRCHDU: Convergence failed at 155  side 2    Res =  0.4779E+01
 MRCHDU: Convergence failed at 156  side 2    Res =  0.5650E+01
 MRCHDU: Convergence failed at 157  side 2    Res =  0.6853E+01
 MRCHDU: Convergence failed at 158  side 2    Res =  0.8720E+01
 MRCHDU: Convergence failed at 159  side 2    Res =  0.1157E+02
 MRCHDU: Convergence failed at 160  side 2    Res =  0.2368E+02
 MRCHDU: Convergence failed at 161  side 2    Res =  0.5088E+02
 MRCHDU: Convergence failed at 162  side 2    Res =  0.1004E+06
 Side 1 forced transition at x/c =  1.0000  140
 Side 2  free  transition at x/c =  0.6322  119

   2   rms: 0.1351E+00   max: -.6946E+00   D at  143  2   RLX: 0.720
       a = -4.000      CL = -0.5113
      Cm =  0.0147     CD =  0.02057   =>   CDf =  0.00785    CDp =  0.01272

 Side 1 forced transition at x/c =  1.0000  140
 Side 2  free  transition at x/c =  0.6395  119
 idif Ue xi dudx           1  7.12027550E-02  1.26719475E-03   56.189274    
 Uenew xinew           2  2.94724479E-04  5.24520874E-06

   3   rms: 0.8263E-01   max: -.5589E+00   C at  119  2   RLX: 0.895
       a = -4.000      CL = -0.5407
      Cm =  0.0200     CD =  0.01978   =>   CDf =  0.00836    CDp =  0.01143

 Side 1 forced transition at x/c =  1.0000  139
 Side 2  free  transition at x/c =  0.6024  116

   4   rms: 0.1104E+00   max: 0.2519E+01   D at    2  2   RLX: 0.596
       a = -4.000      CL = -0.5404
      Cm =  0.0179     CD =  0.02056   =>   CDf =  0.00854    CDp =  0.01202

 Side 1 forced transition at x/c =  1.0000  139
 Side 2  free  transition at x/c =  0.6111  117

   5   rms: 0.2319E-01   max: -.3735E+00   D at    3  2
       a = -4.000      CL = -0.5427
      Cm =  0.0185     CD =  0.01997   =>   CDf =  0.00856    CDp =  0.01141

 Side 1 forced transition at x/c =  1.0000  139
 Side 2  free  transition at x/c =  0.6132  117

   6   rms: 0.1001E-02   max: -.1325E-01   D at    5  2
       a = -4.000      CL = -0.5428
      Cm =  0.0185     CD =  0.02001   =>   CDf =  0.00853    CDp =  0.01148

 Side 1 forced transition at x/c =  1.0000  139
 Side 2  free  transition at x/c =  0.6127  117

   7   rms: 0.2921E-04   max: -.2312E-03   D at  121  2
       a = -4.000      CL = -0.5428
      Cm =  0.0185     CD =  0.02001   =>   CDf =  0.00853    CDp =  0.01148
 plradd ia,ip,cpol            4         138  1.19360639E-02

 Point added to stored polar  1
 Save file unspecified or not available
 Dump file unspecified or not available

.OPERva   c>  
.OPERva   c>  
.OPERva   c>   Calculating wake trajectory ...
 Array size (IWX) too small.  Last wake point index reduced.
 Calculating source influence matrix ...

 Solving BL system ...

 Side 1 forced transition at x/c =  1.0000  139
 Side 2  free  transition at x/c =  0.6127  117

   1   rms: 0.2177E+00   max: 0.2085E+01   T at  117  2   RLX: 0.485
       a = -5.000      CL = -0.5674
      Cm =  0.0142     CD =  0.02128   =>   CDf =  0.00854    CDp =  0.01274

 Side 1 forced transition at x/c =  1.0000  139
 Side 2  free  transition at x/c =  0.5277  108
 idif Ue xi dudx           1  0.12442313      2.41672993E-03   51.484085    
 Uenew xinew           2  5.72617650E-02  1.11222267E-03

   2   rms: 0.1669E+00   max: 0.9294E+00   T at  108  2   RLX: 0.666
       a = -5.000      CL = -0.5997
      Cm =  0.0090     CD =  0.02105   =>   CDf =  0.00858    CDp =  0.01247

 Side 1 forced transition at x/c =  1.0000  138
 Side 2  free  transition at x/c =  0.4854  104
 idif Ue xi dudx           1  7.82636181E-02  1.63578987E-03   47.844543    
 Uenew xinew           2  1.36428056E-02  2.85148621E-04

   3   rms: 0.9377E-01   max: -.5474E+00   D at  117  2   RLX: 0.913
       a = -5.000      CL = -0.6141
      Cm =  0.0078     CD =  0.02055   =>   CDf =  0.00869    CDp =  0.01185

 Side 1 forced transition at x/c =  1.0000  137
 Side 2  free  transition at x/c =  0.4531  101

   4   rms: 0.3245E-01   max: -.2926E+00   D at  104  2
       a = -5.000      CL = -0.6160
      Cm =  0.0084     CD =  0.02148   =>   CDf =  0.00910    CDp =  0.01238

 Side 1 forced transition at x/c =  1.0000  137
 Side 2  free  transition at x/c =  0.4418  100

   5   rms: 0.1046E-01   max: -.1004E+00   D at  104  2
       a = -5.000      CL = -0.6174
      Cm =  0.0085     CD =  0.02156   =>   CDf =  0.00930    CDp =  0.01226

 Side 1 forced transition at x/c =  1.0000  137
 Side 2  free  transition at x/c =  0.4443  100

   6   rms: 0.7549E-03   max: 0.7360E-02   D at  103  2
       a = -5.000      CL = -0.6176
      Cm =  0.0085     CD =  0.02158   =>   CDf =  0.00925    CDp =  0.01233

 Side 1 forced transition at x/c =  1.0000  137
 Side 2  free  transition at x/c =  0.4438  100

   7   rms: 0.4768E-04   max: -.3824E-03   T at  100  2
       a = -5.000      CL = -0.6175
      Cm =  0.0085     CD =  0.02158   =>   CDf =  0.00925    CDp =  0.01233
 plradd ia,ip,cpol            5         136  8.25237483E-03

 Point added to stored polar  1
 Save file unspecified or not available
 Dump file unspecified or not available

.OPERva   c>  
.OPERva   c>  
.OPERva   c>   Calculating wake trajectory ...
 Array size (IWX) too small.  Last wake point index reduced.
 Calculating source influence matrix ...

 Solving BL system ...

 Side 1 forced transition at x/c =  1.0000  137
 Side 2  free  transition at x/c =  0.4438  100
 idif Ue xi dudx           1  8.97778273E-02  1.89626217E-03   47.344627    
 Uenew xinew           2  2.34504845E-02  4.95314598E-04

   1   rms: 0.2353E+00   max: 0.2443E+01   T at  100  2   RLX: 0.614
       a = -6.000      CL = -0.6545
      Cm =  0.0031     CD =  0.02345   =>   CDf =  0.00919    CDp =  0.01426

 MRCHDU: Convergence failed at 101  side 2    Res =  0.5452E+01
 MRCHDU: Convergence failed at 102  side 2    Res =  0.8410E+02
 MRCHDU: Convergence failed at 103  side 2    Res =  0.1326E+02
 MRCHDU: Convergence failed at 104  side 2    Res =  0.8212E+01
 MRCHDU: Convergence failed at 105  side 2    Res =  0.6059E+01
 MRCHDU: Convergence failed at 106  side 2    Res =  0.5444E+01
 MRCHDU: Convergence failed at 107  side 2    Res =  0.5740E+01
 MRCHDU: Convergence failed at 108  side 2    Res =  0.6098E+01
 MRCHDU: Convergence failed at 109  side 2    Res =  0.6988E+01
 MRCHDU: Convergence failed at 110  side 2    Res =  0.8734E+01
 MRCHDU: Convergence failed at 111  side 2    Res =  0.2030E+02
 MRCHDU: Convergence failed at 112  side 2    Res =  0.3680E+02
 MRCHDU: Convergence failed at 113  side 2    Res =  0.7553E+02
 MRCHDU: Convergence failed at 114  side 2    Res =  0.1352E+03
 MRCHDU: Convergence failed at 115  side 2    Res =  0.1096E+03
 MRCHDU: Convergence failed at 116  side 2    Res =  0.7595E+02
 MRCHDU: Convergence failed at 117  side 2    Res =  0.4859E+02
 MRCHDU: Convergence failed at 118  side 2    Res =  0.3594E+02
 MRCHDU: Convergence failed at 119  side 2    Res =  0.2924E+02
 MRCHDU: Convergence failed at 120  side 2    Res =  0.2448E+02
 MRCHDU: Convergence failed at 121  side 2    Res =  0.2111E+02
 MRCHDU: Convergence failed at 122  side 2    Res =  0.1912E+02
 MRCHDU: Convergence failed at 123  side 2    Res =  0.1786E+02
 MRCHDU: Convergence failed at 124  side 2    Res =  0.1679E+02
 MRCHDU: Convergence failed at 125  side 2    Res =  0.1608E+02
 MRCHDU: Convergence failed at 126  side 2    Res =  0.1588E+02
 MRCHDU: Convergence failed at 127  side 2    Res =  0.1592E+02
 MRCHDU: Convergence failed at 128  side 2    Res =  0.1614E+02
 MRCHDU: Convergence failed at 129  side 2    Res =  0.1648E+02
 MRCHDU: Convergence failed at 130  side 2    Res =  0.1702E+02
 MRCHDU: Convergence failed at 131  side 2    Res =  0.1766E+02
 MRCHDU: Convergence failed at 132  side 2    Res =  0.1837E+02
 MRCHDU: Convergence failed at 133  side 2    Res =  0.1949E+02
 MRCHDU: Convergence failed at 134  side 2    Res =  0.2090E+02
 MRCHDU: Convergence failed at 135  side 2    Res =  0.2269E+02
 MRCHDU: Convergence failed at 136  side 2    Res =  0.2502E+02
 MRCHDU: Convergence failed at 137  side 2    Res =  0.2796E+02
 MRCHDU: Convergence failed at 138  side 2    Res =  0.3201E+02
 MRCHDU: Convergence failed at 139  side 2    Res =  0.3730E+02
 MRCHDU: Convergence failed at 140  side 2    Res =  0.4533E+02
 MRCHDU: Convergence failed at 141  side 2    Res =  0.5813E+02
 MRCHDU: Convergence failed at 142  side 2    Res =  0.1026E+03
 MRCHDU: Convergence failed at 143  side 2    Res =  0.2100E+03
 MRCHDU: Convergence failed at 144  side 2    Res =  0.2938E+03
 MRCHDU: Convergence failed at 145  side 2    Res =  0.7310E+02
 MRCHDU: Convergence failed at 146  side 2    Res =  0.5204E+02
 MRCHDU: Convergence failed at 147  side 2    Res =  0.3979E+02
 MRCHDU: Convergence failed at 148  side 2    Res =  0.3215E+02
 MRCHDU: Convergence failed at 149  side 2    Res =  0.2679E+02
 MRCHDU: Convergence failed at 150  side 2    Res =  0.2286E+02
 MRCHDU: Convergence failed at 151  side 2    Res =  0.1883E+02
 MRCHDU: Convergence failed at 152  side 2    Res =  0.1610E+02
 MRCHDU: Convergence failed at 153  side 2    Res =  0.1361E+02
 MRCHDU: Convergence failed at 154  side 2    Res =  0.1236E+02
 MRCHDU: Convergence failed at 155  side 2    Res =  0.1127E+02
 MRCHDU: Convergence failed at 156  side 2    Res =  0.1036E+02
 MRCHDU: Convergence failed at 157  side 2    Res =  0.9550E+01
 MRCHDU: Convergence failed at 158  side 2    Res =  0.8686E+01
 MRCHDU: Convergence failed at 159  side 2    Res =  0.7931E+01
 MRCHDU: Convergence failed at 160  side 2    Res =  0.7807E+01
 MRCHDU: Convergence failed at 161  side 2    Res =  0.8241E+01
 MRCHDU: Convergence failed at 162  side 2    Res =  0.8697E+01
 MRCHDU: Convergence failed at 163  side 2    Res =  0.9259E+01
 MRCHDU: Convergence failed at 164  side 2    Res =  0.9842E+01
 MRCHDU: Convergence failed at 165  side 2    Res =  0.1044E+02
 MRCHDU: Convergence failed at 166  side 2    Res =  0.1058E+02
 Side 1 forced transition at x/c =  1.0000  136
 Side 2  free  transition at x/c =  0.3514   91

   2   rms: 0.4247E+00   max: -.2215E+01   C at  136  1   RLX: 0.226
       a = -6.000      CL = -0.7318
      Cm =  0.0742     CD =  0.02008   =>   CDf =  0.00680    CDp =  0.01328

 Side 1 forced transition at x/c =  1.0000  137
 Side 2  free  transition at x/c =  0.3674   92
 idif Ue xi dudx           1  0.11263575      2.45344639E-03   45.909195    
 Uenew xinew           2  4.83193733E-02  1.05249882E-03

   3   rms: 0.2881E+00   max: 0.1472E+01   T at   92  2   RLX: 0.481
       a = -6.000      CL = -0.7157
      Cm =  0.0343     CD =  0.01989   =>   CDf =  0.01058    CDp =  0.00931

 Side 1 forced transition at x/c =  1.0000  136
 Side 2  free  transition at x/c =  0.3348   89
 idif Ue xi dudx           1  7.44433850E-02  1.69789791E-03   43.844440    
 Uenew xinew           2  1.06362626E-02  2.42590904E-04

   4   rms: 0.2131E+00   max: -.1091E+01   D at  108  2   RLX: 0.458
       a = -6.000      CL = -0.7097
      Cm =  0.0175     CD =  0.02056   =>   CDf =  0.00983    CDp =  0.01073

 Side 1 forced transition at x/c =  1.0000  135
 Side 2  free  transition at x/c =  0.3192   88

   5   rms: 0.1207E+00   max: 0.6250E+00   T at   88  2   RLX: 0.863
       a = -6.000      CL = -0.7000
      Cm =  0.0028     CD =  0.02254   =>   CDf =  0.00985    CDp =  0.01268

 Side 1 forced transition at x/c =  1.0000  135
 Side 2  free  transition at x/c =  0.2895   85

   6   rms: 0.4306E-01   max: -.3588E+00   D at   87  2
       a = -6.000      CL = -0.6902
      Cm =  0.0001     CD =  0.02481   =>   CDf =  0.00997    CDp =  0.01484

 Side 1 forced transition at x/c =  1.0000  135
 Side 2  free  transition at x/c =  0.2869   84

   7   rms: 0.4221E-02   max: -.3942E-01   D at   93  2
       a = -6.000      CL = -0.6897
      Cm =  0.0002     CD =  0.02495   =>   CDf =  0.01016    CDp =  0.01478

 Side 1 forced transition at x/c =  1.0000  135
 Side 2  free  transition at x/c =  0.2856   84

   8   rms: 0.8675E-03   max: -.8120E-02   D at   87  2
       a = -6.000      CL = -0.6897
      Cm =  0.0002     CD =  0.02493   =>   CDf =  0.01013    CDp =  0.01480

 Side 1 forced transition at x/c =  1.0000  135
 Side 2  free  transition at x/c =  0.2858   84

   9   rms: 0.4040E-04   max: 0.3088E-03   T at   84  2
       a = -6.000      CL = -0.6897
      Cm =  0.0002     CD =  0.02493   =>   CDf =  0.01013    CDp =  0.01481
 plradd ia,ip,cpol            6         134  6.20425120E-03

 Point added to stored polar  1
 Save file unspecified or not available
 Dump file unspecified or not available

.OPERva   c>  
.OPERva   c>  
.OPERva   c>   Calculating wake trajectory ...
 Array size (IWX) too small.  Last wake point index reduced.
 Calculating source influence matrix ...

 Solving BL system ...

 Side 1 forced transition at x/c =  1.0000  135
 Side 2  free  transition at x/c =  0.2858   84
 idif Ue xi dudx           1  8.88931230E-02  2.20316648E-03   40.347893    
 Uenew xinew           2  2.77768467E-02  6.88433647E-04

   1   rms: 0.2290E+00   max: 0.2519E+01   T at   84  2   RLX: 0.596
       a = -7.000      CL = -0.7332
      Cm = -0.0044     CD =  0.02757   =>   CDf =  0.01007    CDp =  0.01751

 MRCHDU: Convergence failed at  85  side 2    Res =  0.6447E+01
 MRCHDU: Convergence failed at  86  side 2    Res =  0.1328E+02
 MRCHDU: Convergence failed at  87  side 2    Res =  0.5350E+02
 MRCHDU: Convergence failed at  88  side 2    Res =  0.1429E+02
 MRCHDU: Convergence failed at  89  side 2    Res =  0.9549E+01
 MRCHDU: Convergence failed at  90  side 2    Res =  0.8050E+01
 MRCHDU: Convergence failed at  91  side 2    Res =  0.7394E+01
 MRCHDU: Convergence failed at  92  side 2    Res =  0.7224E+01
 MRCHDU: Convergence failed at  93  side 2    Res =  0.7452E+01
 MRCHDU: Convergence failed at  94  side 2    Res =  0.7927E+01
 MRCHDU: Convergence failed at  95  side 2    Res =  0.8620E+01
 MRCHDU: Convergence failed at  96  side 2    Res =  0.9790E+01
 MRCHDU: Convergence failed at  97  side 2    Res =  0.1066E+02
 MRCHDU: Convergence failed at  98  side 2    Res =  0.1156E+02
 MRCHDU: Convergence failed at  99  side 2    Res =  0.1232E+02
 MRCHDU: Convergence failed at 100  side 2    Res =  0.1331E+02
 MRCHDU: Convergence failed at 101  side 2    Res =  0.1424E+02
 MRCHDU: Convergence failed at 102  side 2    Res =  0.1551E+02
 MRCHDU: Convergence failed at 103  side 2    Res =  0.1654E+02
 MRCHDU: Convergence failed at 104  side 2    Res =  0.1704E+02
 MRCHDU: Convergence failed at 105  side 2    Res =  0.1788E+02
 MRCHDU: Convergence failed at 106  side 2    Res =  0.1905E+02
 MRCHDU: Convergence failed at 107  side 2    Res =  0.2089E+02
 MRCHDU: Convergence failed at 108  side 2    Res =  0.2240E+02
 MRCHDU: Convergence failed at 109  side 2    Res =  0.2407E+02
 MRCHDU: Convergence failed at 110  side 2    Res =  0.2695E+02
 MRCHDU: Convergence failed at 111  side 2    Res =  0.3258E+02
 MRCHDU: Convergence failed at 112  side 2    Res =  0.3607E+02
 MRCHDU: Convergence failed at 113  side 2    Res =  0.4044E+02
 MRCHDU: Convergence failed at 114  side 2    Res =  0.4589E+02
 MRCHDU: Convergence failed at 115  side 2    Res =  0.5180E+02
 MRCHDU: Convergence failed at 116  side 2    Res =  0.6146E+02
 MRCHDU: Convergence failed at 117  side 2    Res =  0.7598E+02
 MRCHDU: Convergence failed at 118  side 2    Res =  0.1004E+03
 MRCHDU: Convergence failed at 119  side 2    Res =  0.1444E+03
 MRCHDU: Convergence failed at 120  side 2    Res =  0.2641E+03
 MRCHDU: Convergence failed at 121  side 2    Res =  0.1510E+04
 MRCHDU: Convergence failed at 122  side 2    Res =  0.4128E+03
 MRCHDU: Convergence failed at 123  side 2    Res =  0.1796E+03
 MRCHDU: Convergence failed at 124  side 2    Res =  0.1175E+03
 MRCHDU: Convergence failed at 125  side 2    Res =  0.8234E+02
 MRCHDU: Convergence failed at 126  side 2    Res =  0.6679E+02
 MRCHDU: Convergence failed at 127  side 2    Res =  0.6093E+02
 MRCHDU: Convergence failed at 128  side 2    Res =  0.5234E+02
 MRCHDU: Convergence failed at 129  side 2    Res =  0.4583E+02
 MRCHDU: Convergence failed at 130  side 2    Res =  0.4046E+02
 MRCHDU: Convergence failed at 131  side 2    Res =  0.3628E+02
 MRCHDU: Convergence failed at 132  side 2    Res =  0.3280E+02
 MRCHDU: Convergence failed at 133  side 2    Res =  0.2982E+02
 MRCHDU: Convergence failed at 134  side 2    Res =  0.2734E+02
 MRCHDU: Convergence failed at 135  side 2    Res =  0.2526E+02
 MRCHDU: Convergence failed at 136  side 2    Res =  0.2334E+02
 MRCHDU: Convergence failed at 137  side 2    Res =  0.2174E+02
 MRCHDU: Convergence failed at 138  side 2    Res =  0.2072E+02
 MRCHDU: Convergence failed at 139  side 2    Res =  0.1949E+02
 MRCHDU: Convergence failed at 140  side 2    Res =  0.1834E+02
 MRCHDU: Convergence failed at 141  side 2    Res =  0.1737E+02
 MRCHDU: Convergence failed at 142  side 2    Res =  0.1644E+02
 MRCHDU: Convergence failed at 143  side 2    Res =  0.1559E+02
 MRCHDU: Convergence failed at 144  side 2    Res =  0.1483E+02
 MRCHDU: Convergence failed at 145  side 2    Res =  0.1409E+02
 MRCHDU: Convergence failed at 146  side 2    Res =  0.1343E+02
 MRCHDU: Convergence failed at 147  side 2    Res =  0.1273E+02
 MRCHDU: Convergence failed at 148  side 2    Res =  0.1213E+02
 MRCHDU: Convergence failed at 149  side 2    Res =  0.1361E+02
 MRCHDU: Convergence failed at 150  side 2    Res =  0.1391E+02
 MRCHDU: Convergence failed at 151  side 2    Res =  0.1203E+02
 MRCHDU: Convergence failed at 152  side 2    Res =  0.1261E+02
 MRCHDU: Convergence failed at 153  side 2    Res =  0.1326E+02
 MRCHDU: Convergence failed at 154  side 2    Res =  0.1524E+02
 MRCHDU: Convergence failed at 155  side 2    Res =  0.1560E+02
 MRCHDU: Convergence failed at 156  side 2    Res =  0.1610E+02
 MRCHDU: Convergence failed at 157  side 2    Res =  0.1893E+02
 MRCHDU: Convergence failed at 158  side 2    Res =  0.1411E+02
 MRCHDU: Convergence failed at 159  side 2    Res =  0.2178E+02
 MRCHDU: Convergence failed at 160  side 2    Res =  0.2189E+02
 MRCHDU: Convergence failed at 161  side 2    Res =  0.2197E+02
 MRCHDU: Convergence failed at 162  side 2    Res =  0.2792E+02
 MRCHDU: Convergence failed at 163  side 2    Res =  0.3254E+02
 MRCHDU: Convergence failed at 164  side 2    Res =  0.2748E+02
 MRCHDU: Convergence failed at 165  side 2    Res =  0.2861E+02
 MRCHDU: Convergence failed at 166  side 2    Res =  0.2704E+02
 MRCHDU: Convergence failed at 167  side 2    Res =  0.1494E+02
 MRCHDU: Convergence failed at 168  side 2    Res =  0.2784E+02
 Side 1 forced transition at x/c =  1.0000  134
 Side 2  free  transition at x/c =  0.2305   79

   2   rms: 0.6098E+00   max: -.3251E+01   C at  134  1   RLX: 0.154
       a = -7.000      CL = -1.0672
      Cm =  0.1713     CD =  0.01756   =>   CDf =  0.00639    CDp =  0.01117

 Side 1 forced transition at x/c =  1.0000  135
 Side 2  free  transition at x/c =  0.2379   78
 idif Ue xi dudx           1  7.02059865E-02  1.74480677E-03   40.237114    
 Uenew xinew           2  9.25751124E-03  2.30073929E-04

   3   rms: 0.2754E+00   max: -.5612E+00   D at  168  2   RLX: 0.547
       a = -7.000      CL = -0.7721
      Cm =  0.0303     CD =  0.03571   =>   CDf =  0.00721    CDp =  0.02850

 Side 1 forced transition at x/c =  1.0000  134
 Side 2  free  transition at x/c =  0.2350   79

   4   rms: 0.3225E+00   max: -.1440E+01   D at  107  2   RLX: 0.347
       a = -7.000      CL = -0.6994
      Cm =  0.0002     CD =  0.03327   =>   CDf =  0.00738    CDp =  0.02589

 Side 1 forced transition at x/c =  1.0000  134
 Side 2  free  transition at x/c =  0.2542   81

   5   rms: 0.2822E+00   max: -.1173E+01   D at  123  2   RLX: 0.426
       a = -7.000      CL = -0.6748
      Cm = -0.0209     CD =  0.02832   =>   CDf =  0.00799    CDp =  0.02033

 Side 1 forced transition at x/c =  1.0000  134
 Side 2  free  transition at x/c =  0.2497   81

   6   rms: 0.3346E+00   max: 0.1523E+01   T at   81  2   RLX: 0.452
       a = -7.000      CL = -0.7284
      Cm = -0.0199     CD =  0.02656   =>   CDf =  0.00887    CDp =  0.01769

 MRCHDU: Convergence failed at  83  side 2    Res =  0.1088E+01
 MRCHDU: Convergence failed at  84  side 2    Res =  0.3380E+01
 MRCHDU: Convergence failed at  85  side 2    Res =  0.2711E+02
 MRCHDU: Convergence failed at  86  side 2    Res =  0.3884E+01
 MRCHDU: Convergence failed at  87  side 2    Res =  0.2493E+01
 MRCHDU: Convergence failed at  88  side 2    Res =  0.1885E+01
 MRCHDU: Convergence failed at  89  side 2    Res =  0.1779E+01
 MRCHDU: Convergence failed at  90  side 2    Res =  0.1705E+01
 MRCHDU: Convergence failed at  91  side 2    Res =  0.1714E+01
 MRCHDU: Convergence failed at  92  side 2    Res =  0.1754E+01
 MRCHDU: Convergence failed at  93  side 2    Res =  0.1809E+01
 MRCHDU: Convergence failed at  94  side 2    Res =  0.1890E+01
 MRCHDU: Convergence failed at  95  side 2    Res =  0.1926E+01
 MRCHDU: Convergence failed at  96  side 2    Res =  0.2035E+01
 MRCHDU: Convergence failed at  97  side 2    Res =  0.2147E+01
 MRCHDU: Convergence failed at  98  side 2    Res =  0.2281E+01
 MRCHDU: Convergence failed at  99  side 2    Res =  0.2483E+01
 MRCHDU: Convergence failed at 100  side 2    Res =  0.2738E+01
 MRCHDU: Convergence failed at 101  side 2    Res =  0.3066E+01
 MRCHDU: Convergence failed at 102  side 2    Res =  0.4006E+01
 MRCHDU: Convergence failed at 103  side 2    Res =  0.4835E+01
 MRCHDU: Convergence failed at 104  side 2    Res =  0.6521E+01
 MRCHDU: Convergence failed at 105  side 2    Res =  0.1197E+02
 MRCHDU: Convergence failed at 106  side 2    Res =  0.4962E+01
 MRCHDU: Convergence failed at 111  side 2    Res =  0.2446E+01
 MRCHDU: Convergence failed at 112  side 2    Res =  0.7915E+01
 MRCHDU: Convergence failed at 113  side 2    Res =  0.1177E+02
 MRCHDU: Convergence failed at 114  side 2    Res =  0.2443E+02
 MRCHDU: Convergence failed at 115  side 2    Res =  0.3541E+02
 MRCHDU: Convergence failed at 116  side 2    Res =  0.4392E+02
 MRCHDU: Convergence failed at 117  side 2    Res =  0.4717E+02
 MRCHDU: Convergence failed at 118  side 2    Res =  0.2841E+02
 MRCHDU: Convergence failed at 119  side 2    Res =  0.2530E+02
 MRCHDU: Convergence failed at 120  side 2    Res =  0.2043E+02
 MRCHDU: Convergence failed at 121  side 2    Res =  0.1664E+02
 MRCHDU: Convergence failed at 122  side 2    Res =  0.1350E+02
 MRCHDU: Convergence failed at 123  side 2    Res =  0.1076E+02
 MRCHDU: Convergence failed at 124  side 2    Res =  0.8872E+01
 MRCHDU: Convergence failed at 125  side 2    Res =  0.7436E+01
 MRCHDU: Convergence failed at 126  side 2    Res =  0.6374E+01
 MRCHDU: Convergence failed at 127  side 2    Res =  0.5712E+01
 MRCHDU: Convergence failed at 128  side 2    Res =  0.5188E+01
 MRCHDU: Convergence failed at 129  side 2    Res =  0.3550E+01
 MRCHDU: Convergence failed at 130  side 2    Res =  0.3402E+01
 MRCHDU: Convergence failed at 131  side 2    Res =  0.3357E+01
 MRCHDU: Convergence failed at 132  side 2    Res =  0.3310E+01
 MRCHDU: Convergence failed at 133  side 2    Res =  0.3253E+01
 MRCHDU: Convergence failed at 134  side 2    Res =  0.3153E+01
 MRCHDU: Convergence failed at 135  side 2    Res =  0.3059E+01
 MRCHDU: Convergence failed at 136  side 2    Res =  0.2930E+01
 MRCHDU: Convergence failed at 137  side 2    Res =  0.2773E+01
 MRCHDU: Convergence failed at 138  side 2    Res =  0.2621E+01
 MRCHDU: Convergence failed at 139  side 2    Res =  0.2431E+01
 MRCHDU: Convergence failed at 140  side 2    Res =  0.3545E+01
 MRCHDU: Convergence failed at 143  side 2    Res =  0.4046E+01
 MRCHDU: Convergence failed at 144  side 2    Res =  0.3412E+01
 MRCHDU: Convergence failed at 145  side 2    Res =  0.3331E+01
 MRCHDU: Convergence failed at 146  side 2    Res =  0.3161E+01
 MRCHDU: Convergence failed at 147  side 2    Res =  0.2949E+01
 MRCHDU: Convergence failed at 148  side 2    Res =  0.2756E+01
 MRCHDU: Convergence failed at 149  side 2    Res =  0.3022E+01
 MRCHDU: Convergence failed at 150  side 2    Res =  0.3307E+01
 MRCHDU: Convergence failed at 151  side 2    Res =  0.3675E+01
 MRCHDU: Convergence failed at 152  side 2    Res =  0.4195E+01
 MRCHDU: Convergence failed at 153  side 2    Res =  0.5030E+01
 MRCHDU: Convergence failed at 154  side 2    Res =  0.5982E+01
 MRCHDU: Convergence failed at 155  side 2    Res =  0.7285E+01
 MRCHDU: Convergence failed at 156  side 2    Res =  0.9548E+01
 MRCHDU: Convergence failed at 157  side 2    Res =  0.1409E+02
 MRCHDU: Convergence failed at 158  side 2    Res =  0.2281E+02
 MRCHDU: Convergence failed at 159  side 2    Res =  0.6987E+02
 MRCHDU: Convergence failed at 160  side 2    Res =  0.5006E+02
 MRCHDU: Convergence failed at 161  side 2    Res =  0.1667E+02
 MRCHDU: Convergence failed at 162  side 2    Res =  0.1152E+02
 MRCHDU: Convergence failed at 163  side 2    Res =  0.8821E+01
 MRCHDU: Convergence failed at 164  side 2    Res =  0.6990E+01
 MRCHDU: Convergence failed at 165  side 2    Res =  0.5750E+01
 MRCHDU: Convergence failed at 166  side 2    Res =  0.4956E+01
 MRCHDU: Convergence failed at 167  side 2    Res =  0.4563E+01
 MRCHDU: Convergence failed at 168  side 2    Res =  0.4305E+01
 Side 1 forced transition at x/c =  1.0000  134
 Side 2  free  transition at x/c =  0.2238   78

   7   rms: 0.3368E+00   max: 0.7414E+00   D at  177  2   RLX: 0.981
       a = -7.000      CL = -0.7316
      Cm = -0.0076     CD =  0.02371   =>   CDf =  0.00965    CDp =  0.01406

 Side 1 forced transition at x/c =  1.0000  134
 Side 2  free  transition at x/c =  0.2067   76
 idif Ue xi dudx           1  7.91550875E-02  2.10857391E-03   37.539631    
 Uenew xinew           2  1.98715609E-02  5.29348850E-04

   8   rms: 0.7463E-01   max: 0.5511E+00   C at  134  1
       a = -7.000      CL = -0.7689
      Cm = -0.0059     CD =  0.03000   =>   CDf =  0.01071    CDp =  0.01929

 Side 1 forced transition at x/c =  1.0000  133
 Side 2  free  transition at x/c =  0.1967   75

   9   rms: 0.1688E-01   max: -.2477E+00   D at   76  2
       a = -7.000      CL = -0.7696
      Cm = -0.0058     CD =  0.03004   =>   CDf =  0.01052    CDp =  0.01952

 Side 1 forced transition at x/c =  1.0000  133
 Side 2  free  transition at x/c =  0.1964   75

  10   rms: 0.1772E-02   max: 0.1307E-01   D at   79  2
       a = -7.000      CL = -0.7700
      Cm = -0.0057     CD =  0.03006   =>   CDf =  0.01058    CDp =  0.01948

 Side 1 forced transition at x/c =  1.0000  133
 Side 2  free  transition at x/c =  0.1961   75

  11   rms: 0.1341E-03   max: -.1109E-02   T at   75  2
       a = -7.000      CL = -0.7699
      Cm = -0.0057     CD =  0.03005   =>   CDf =  0.01056    CDp =  0.01949

 Side 1 forced transition at x/c =  1.0000  133
 Side 2  free  transition at x/c =  0.1961   75

  12   rms: 0.7399E-05   max: 0.8845E-04   T at   75  2
       a = -7.000      CL = -0.7699
      Cm = -0.0057     CD =  0.03005   =>   CDf =  0.01057    CDp =  0.01949
 plradd ia,ip,cpol            7         132  5.29459212E-03

 Point added to stored polar  1
 Save file unspecified or not available
 Dump file unspecified or not available

.OPERva   c>  
.OPERva   c>  
.OPERva   c>   Calculating wake trajectory ...
 Array size (IWX) too small.  Last wake point index reduced.
 Calculating source influence matrix ...

 Solving BL system ...

 Side 1 forced transition at x/c =  1.0000  133
 Side 2  free  transition at x/c =  0.1961   75

   1   rms: 0.2615E+00   max: 0.2534E+01   T at   75  2   RLX: 0.362
       a = -8.000      CL = -0.7918
      Cm = -0.0089     CD =  0.03299   =>   CDf =  0.01058    CDp =  0.02241

 Side 1 forced transition at x/c =  1.0000  133
 Side 2  free  transition at x/c =  0.1751   73
 idif Ue xi dudx           2  0.12257197      3.57973576E-03   34.240505    
 Uenew xinew           3  6.60881996E-02  1.93011761E-03

   2   rms: 0.1032E+00   max: 0.1156E+01   T at   73  2
       a = -8.000      CL = -0.8383
      Cm = -0.0124     CD =  0.03668   =>   CDf =  0.00970    CDp =  0.02698

 Side 1 forced transition at x/c =  1.0000  131
 Side 2  free  transition at x/c =  0.1555   72

   3   rms: 0.5196E-01   max: -.4531E+00   D at   74  2
       a = -8.000      CL = -0.8437
      Cm = -0.0116     CD =  0.03755   =>   CDf =  0.00946    CDp =  0.02809

 Side 1 forced transition at x/c =  1.0000  131
 Side 2  free  transition at x/c =  0.1527   72

   4   rms: 0.1067E-01   max: -.7563E-01   D at   74  2
       a = -8.000      CL = -0.8460
      Cm = -0.0113     CD =  0.03730   =>   CDf =  0.00993    CDp =  0.02737

 Side 1 forced transition at x/c =  1.0000  131
 Side 2  free  transition at x/c =  0.1526   72

   5   rms: 0.9703E-03   max: 0.6154E-02   T at   72  2
       a = -8.000      CL = -0.8469
      Cm = -0.0112     CD =  0.03734   =>   CDf =  0.01000    CDp =  0.02735

 Side 1 forced transition at x/c =  1.0000  131
 Side 2  free  transition at x/c =  0.1524   72

   6   rms: 0.2883E-04   max: -.1462E-03   C at  131  1
       a = -8.000      CL = -0.8469
      Cm = -0.0112     CD =  0.03734   =>   CDf =  0.00999    CDp =  0.02735
 plradd ia,ip,cpol            8         130  3.69665329E-03

 Point added to stored polar  1
 Save file unspecified or not available
 Dump file unspecified or not available

.OPERva   c>  
.OPERva   c>  
.OPERva   c>   Calculating wake trajectory ...
 Array size (IWX) too small.  Last wake point index reduced.
 Calculating source influence matrix ...

 Solving BL system ...

 Side 1 forced transition at x/c =  1.0000  131
 Side 2  free  transition at x/c =  0.1524   72
 idif Ue xi dudx           2  0.11289075      3.75247002E-03   30.084385    
 Uenew xinew           3  5.84178604E-02  1.94180012E-03

   1   rms: 0.1766E+00   max: 0.1502E+01   T at   72  2   RLX: 0.999
       a = -9.000      CL = -0.9231
      Cm = -0.0163     CD =  0.04609   =>   CDf =  0.00979    CDp =  0.03629

 MRCHDU: Convergence failed at  77  side 2    Res =  0.1669E+01
 MRCHDU: Convergence failed at  78  side 2    Res =  0.6313E+01
 MRCHDU: Convergence failed at  79  side 2    Res =  0.1355E+02
 MRCHDU: Convergence failed at  80  side 2    Res =  0.4798E+01
 MRCHDU: Convergence failed at  81  side 2    Res =  0.3407E+01
 MRCHDU: Convergence failed at  82  side 2    Res =  0.2839E+01
 MRCHDU: Convergence failed at  83  side 2    Res =  0.2513E+01
 MRCHDU: Convergence failed at  84  side 2    Res =  0.2453E+01
 MRCHDU: Convergence failed at  85  side 2    Res =  0.2469E+01
 MRCHDU: Convergence failed at  86  side 2    Res =  0.2521E+01
 MRCHDU: Convergence failed at  87  side 2    Res =  0.2919E+01
 MRCHDU: Convergence failed at  88  side 2    Res =  0.3385E+01
 MRCHDU: Convergence failed at  89  side 2    Res =  0.3930E+01
 MRCHDU: Convergence failed at  90  side 2    Res =  0.4562E+01
 MRCHDU: Convergence failed at  91  side 2    Res =  0.5819E+01
 MRCHDU: Convergence failed at  92  side 2    Res =  0.6971E+01
 MRCHDU: Convergence failed at  93  side 2    Res =  0.8382E+01
 MRCHDU: Convergence failed at  94  side 2    Res =  0.9807E+01
 MRCHDU: Convergence failed at  95  side 2    Res =  0.1141E+02
 MRCHDU: Convergence failed at  96  side 2    Res =  0.1390E+02
 MRCHDU: Convergence failed at  97  side 2    Res =  0.1609E+02
 MRCHDU: Convergence failed at  98  side 2    Res =  0.1834E+02
 MRCHDU: Convergence failed at  99  side 2    Res =  0.2056E+02
 MRCHDU: Convergence failed at 100  side 2    Res =  0.2269E+02
 MRCHDU: Convergence failed at 101  side 2    Res =  0.2455E+02
 MRCHDU: Convergence failed at 102  side 2    Res =  0.2593E+02
 MRCHDU: Convergence failed at 103  side 2    Res =  0.2690E+02
 MRCHDU: Convergence failed at 104  side 2    Res =  0.2742E+02
 MRCHDU: Convergence failed at 105  side 2    Res =  0.2739E+02
 MRCHDU: Convergence failed at 106  side 2    Res =  0.2697E+02
 MRCHDU: Convergence failed at 107  side 2    Res =  0.2314E+02
 MRCHDU: Convergence failed at 108  side 2    Res =  0.1796E+02
 MRCHDU: Convergence failed at 109  side 2    Res =  0.1748E+02
 MRCHDU: Convergence failed at 110  side 2    Res =  0.1699E+02
 MRCHDU: Convergence failed at 111  side 2    Res =  0.1644E+02
 MRCHDU: Convergence failed at 112  side 2    Res =  0.1590E+02
 MRCHDU: Convergence failed at 113  side 2    Res =  0.1535E+02
 MRCHDU: Convergence failed at 114  side 2    Res =  0.1482E+02
 MRCHDU: Convergence failed at 115  side 2    Res =  0.1429E+02
 MRCHDU: Convergence failed at 116  side 2    Res =  0.1379E+02
 MRCHDU: Convergence failed at 117  side 2    Res =  0.1332E+02
 MRCHDU: Convergence failed at 118  side 2    Res =  0.1226E+02
 MRCHDU: Convergence failed at 119  side 2    Res =  0.1188E+02
 MRCHDU: Convergence failed at 120  side 2    Res =  0.1106E+02
 MRCHDU: Convergence failed at 121  side 2    Res =  0.9514E+01
 MRCHDU: Convergence failed at 122  side 2    Res =  0.9277E+01
 MRCHDU: Convergence failed at 123  side 2    Res =  0.9053E+01
 MRCHDU: Convergence failed at 124  side 2    Res =  0.8836E+01
 MRCHDU: Convergence failed at 125  side 2    Res =  0.8614E+01
 MRCHDU: Convergence failed at 126  side 2    Res =  0.8412E+01
 MRCHDU: Convergence failed at 127  side 2    Res =  0.8214E+01
 MRCHDU: Convergence failed at 128  side 2    Res =  0.7718E+01
 MRCHDU: Convergence failed at 129  side 2    Res =  0.7935E+01
 MRCHDU: Convergence failed at 130  side 2    Res =  0.1135E+02
 MRCHDU: Convergence failed at 131  side 2    Res =  0.1248E+02
 MRCHDU: Convergence failed at 132  side 2    Res =  0.1206E+02
 MRCHDU: Convergence failed at 133  side 2    Res =  0.1160E+02
 MRCHDU: Convergence failed at 134  side 2    Res =  0.1114E+02
 MRCHDU: Convergence failed at 135  side 2    Res =  0.1061E+02
 MRCHDU: Convergence failed at 136  side 2    Res =  0.1011E+02
 MRCHDU: Convergence failed at 137  side 2    Res =  0.1885E+02
 MRCHDU: Convergence failed at 138  side 2    Res =  0.1909E+02
 MRCHDU: Convergence failed at 139  side 2    Res =  0.1934E+02
 MRCHDU: Convergence failed at 140  side 2    Res =  0.1613E+02
 MRCHDU: Convergence failed at 141  side 2    Res =  0.1682E+02
 MRCHDU: Convergence failed at 142  side 2    Res =  0.1196E+02
 MRCHDU: Convergence failed at 143  side 2    Res =  0.1253E+02
 MRCHDU: Convergence failed at 144  side 2    Res =  0.1318E+02
 MRCHDU: Convergence failed at 145  side 2    Res =  0.1390E+02
 MRCHDU: Convergence failed at 146  side 2    Res =  0.1470E+02
 MRCHDU: Convergence failed at 147  side 2    Res =  0.1563E+02
 MRCHDU: Convergence failed at 148  side 2    Res =  0.1670E+02
 MRCHDU: Convergence failed at 149  side 2    Res =  0.1792E+02
 MRCHDU: Convergence failed at 150  side 2    Res =  0.2584E+02
 MRCHDU: Convergence failed at 151  side 2    Res =  0.2113E+02
 MRCHDU: Convergence failed at 152  side 2    Res =  0.2290E+02
 MRCHDU: Convergence failed at 153  side 2    Res =  0.2490E+02
 MRCHDU: Convergence failed at 154  side 2    Res =  0.3136E+02
 MRCHDU: Convergence failed at 155  side 2    Res =  0.3415E+02
 MRCHDU: Convergence failed at 156  side 2    Res =  0.3057E+02
 MRCHDU: Convergence failed at 157  side 2    Res =  0.9810E+01
 MRCHDU: Convergence failed at 158  side 2    Res =  0.1295E+02
 MRCHDU: Convergence failed at 159  side 2    Res =  0.9843E+01
 MRCHDU: Convergence failed at 160  side 2    Res =  0.1104E+03
 MRCHDU: Convergence failed at 161  side 2    Res =  0.2284E+03
 MRCHDU: Convergence failed at 162  side 2    Res =  0.1343E+04
 MRCHDU: Convergence failed at 163  side 2    Res =  0.5059E+03
 MRCHDU: Convergence failed at 164  side 2    Res =  0.1482E+03
 MRCHDU: Convergence failed at 165  side 2    Res =  0.8655E+02
 MRCHDU: Convergence failed at 166  side 2    Res =  0.6139E+02
 MRCHDU: Convergence failed at 167  side 2    Res =  0.4773E+02
 MRCHDU: Convergence failed at 168  side 2    Res =  0.3728E+02
 MRCHDU: Convergence failed at 169  side 2    Res =  0.3098E+02
 MRCHDU: Convergence failed at 170  side 2    Res =  0.2677E+02
 MRCHDU: Convergence failed at 171  side 2    Res =  0.2317E+02
 MRCHDU: Convergence failed at 172  side 2    Res =  0.2165E+02
 MRCHDU: Convergence failed at 173  side 2    Res =  0.2046E+02
 Side 1 forced transition at x/c =  1.0000  129
 Side 2  free  transition at x/c =  0.1327   71

   2   rms: 0.8475E+00   max: -.1299E+02   D at    2  2   RLX: 0.038
       a = -9.000      CL = -1.8283
      Cm =  0.3574     CD =  0.01695   =>   CDf =  0.00632    CDp =  0.01062

 Side 1 forced transition at x/c =  1.0000  130
 Side 2  free  transition at x/c =  0.1331   70
 idif Ue xi dudx           1  9.69813764E-02  3.86542082E-03   25.089474    
 Uenew xinew           2  4.92406562E-02  1.96260214E-03

   3   rms: 0.5713E+00   max: 0.2941E+01   D at    2  1   RLX: 0.434
       a = -9.000      CL = -1.4703
      Cm =  0.1843     CD =  0.01844   =>   CDf =  0.01841    CDp =  0.00003

 Side 1 forced transition at x/c =  1.0000  129
 Side 2  free  transition at x/c =  0.1258   71

   4   rms: 0.3639E+00   max: 0.6189E+00   D at  203  2   RLX: 0.964
       a = -9.000      CL = -1.0274
      Cm =  0.0026     CD =  0.03761   =>   CDf =  0.01320    CDp =  0.02441

 Side 1 forced transition at x/c =  1.0000  129
 Side 2  free  transition at x/c =  0.1231   70

   5   rms: 0.6479E-01   max: -.3230E+00   T at   70  2
       a = -9.000      CL = -0.9328
      Cm = -0.0131     CD =  0.04727   =>   CDf =  0.00908    CDp =  0.03819

 Side 1 forced transition at x/c =  1.0000  129
 Side 2  free  transition at x/c =  0.1293   71

   6   rms: 0.9570E-01   max: 0.3940E+00   D at   75  2
       a = -9.000      CL = -0.9068
      Cm = -0.0167     CD =  0.04941   =>   CDf =  0.00938    CDp =  0.04003

 Side 1 forced transition at x/c =  1.0000  130
 Side 2  free  transition at x/c =  0.1312   70

   7   rms: 0.1887E-01   max: -.7748E-01   D at  172  2
       a = -9.000      CL = -0.8988
      Cm = -0.0178     CD =  0.04782   =>   CDf =  0.00867    CDp =  0.03916

 Side 1 forced transition at x/c =  1.0000  130
 Side 2  free  transition at x/c =  0.1319   70

   8   rms: 0.2655E-02   max: 0.1228E-01   D at  172  2
       a = -9.000      CL = -0.9005
      Cm = -0.0176     CD =  0.04791   =>   CDf =  0.00891    CDp =  0.03900

 Side 1 forced transition at x/c =  1.0000  130
 Side 2  free  transition at x/c =  0.1317   70

   9   rms: 0.2425E-03   max: -.1174E-02   D at  172  2
       a = -9.000      CL = -0.9004
      Cm = -0.0176     CD =  0.04789   =>   CDf =  0.00888    CDp =  0.03902

 Side 1 forced transition at x/c =  1.0000  130
 Side 2  free  transition at x/c =  0.1317   70

  10   rms: 0.2205E-04   max: 0.1142E-03   C at  130  1
       a = -9.000      CL = -0.9004
      Cm = -0.0176     CD =  0.04790   =>   CDf =  0.00888    CDp =  0.03902
 plradd ia,ip,cpol            9         129  3.00678611E-03

 Point added to stored polar  1
 Save file unspecified or not available
 Dump file unspecified or not available

.OPERva   c>  
.OPERva   c>  
.OPERva   c>   Calculating wake trajectory ...
 Array size (IWX) too small.  Last wake point index reduced.
 Calculating source influence matrix ...

 Solving BL system ...

 Side 1 forced transition at x/c =  1.0000  130
 Side 2  free  transition at x/c =  0.1317   70
 idif Ue xi dudx           1  8.14367309E-02  2.88087130E-03   28.268091    
 Uenew xinew           2  2.76476797E-02  9.78052616E-04

   1   rms: 0.2391E+00   max: 0.7297E+00   T at   70  2
       a =-10.000      CL = -0.9144
      Cm = -0.0253     CD =  0.06657   =>   CDf =  0.00878    CDp =  0.05779

 MRCHDU: Convergence failed at 159  side 2    Res =  0.2393E+01
 MRCHDU: Convergence failed at 160  side 2    Res =  0.2254E+01
 MRCHDU: Convergence failed at 161  side 2    Res =  0.2154E+01
 MRCHDU: Convergence failed at 162  side 2    Res =  0.2142E+01
 MRCHDU: Convergence failed at 163  side 2    Res =  0.2179E+01
 MRCHDU: Convergence failed at 164  side 2    Res =  0.2200E+01
 MRCHDU: Convergence failed at 165  side 2    Res =  0.2301E+01
 MRCHDU: Convergence failed at 166  side 2    Res =  0.2420E+01
 MRCHDU: Convergence failed at 167  side 2    Res =  0.2463E+01
 MRCHDU: Convergence failed at 168  side 2    Res =  0.2570E+01
 MRCHDU: Convergence failed at 169  side 2    Res =  0.2729E+01
 MRCHDU: Convergence failed at 170  side 2    Res =  0.2896E+01
 MRCHDU: Convergence failed at 171  side 2    Res =  0.3095E+01
 MRCHDU: Convergence failed at 172  side 2    Res =  0.3187E+01
 MRCHDU: Convergence failed at 173  side 2    Res =  0.3287E+01
 Side 1 forced transition at x/c =  1.0000  129
 Side 2  free  transition at x/c =  0.1287   71

   2   rms: 0.6999E-01   max: 0.2931E+00   D at   71  2
       a =-10.000      CL = -0.8654
      Cm = -0.0255     CD =  0.06365   =>   CDf =  0.00693    CDp =  0.05672

 Side 1 forced transition at x/c =  1.0000  130
 Side 2  free  transition at x/c =  0.1285   70

   3   rms: 0.3603E-01   max: 0.1765E+00   D at  165  2
       a =-10.000      CL = -0.8686
      Cm = -0.0247     CD =  0.06719   =>   CDf =  0.00748    CDp =  0.05971

 Side 1 forced transition at x/c =  1.0000  130
 Side 2  free  transition at x/c =  0.1288   70

   4   rms: 0.1536E-01   max: -.8564E-01   C at  130  1
       a =-10.000      CL = -0.8578
      Cm = -0.0249     CD =  0.06644   =>   CDf =  0.00713    CDp =  0.05931

 Side 1 forced transition at x/c =  1.0000  130
 Side 2  free  transition at x/c =  0.1296   70

   5   rms: 0.3737E-02   max: -.1759E-01   D at  192  2
       a =-10.000      CL = -0.8589
      Cm = -0.0251     CD =  0.06629   =>   CDf =  0.00721    CDp =  0.05908

 Side 1 forced transition at x/c =  1.0000  130
 Side 2  free  transition at x/c =  0.1294   70

   6   rms: 0.1283E-02   max: -.4966E-02   D at  194  2
       a =-10.000      CL = -0.8600
      Cm = -0.0250     CD =  0.06640   =>   CDf =  0.00722    CDp =  0.05918

 Side 1 forced transition at x/c =  1.0000  130
 Side 2  free  transition at x/c =  0.1293   70

   7   rms: 0.2594E-03   max: 0.1373E-02   D at  192  2
       a =-10.000      CL = -0.8598
      Cm = -0.0250     CD =  0.06638   =>   CDf =  0.00721    CDp =  0.05917

 Side 1 forced transition at x/c =  1.0000  130
 Side 2  free  transition at x/c =  0.1293   70

   8   rms: 0.3215E-04   max: -.1983E-03   D at  192  2
       a =-10.000      CL = -0.8598
      Cm = -0.0250     CD =  0.06638   =>   CDf =  0.00721    CDp =  0.05917
 plradd ia,ip,cpol           10         129  3.00678611E-03

 Point added to stored polar  1
 Save file unspecified or not available
 Dump file unspecified or not available

.OPERva   c>  
.OPERva   c>  
.OPERva   c>  
        airfoil                    Re           Mach       Ncrit  XtripT  XtripB     file
       ------------------------  ------------  ----------  -----  ------  ------    -------------------
 >  1  NACA 0012                 6.000e4       0.000        9.00   1.000   1.000    

Enter polar output filename   s>  
.OPERva   c>  
 ==============================================================
 Polar  1
  
       XFOIL         Version 6.99
  
 Calculated polar for: NACA 0012                                       
  
 1 1 Reynolds number fixed          Mach number fixed         
  
 xtrf =   1.000 (top)        1.000 (bottom)  
 Mach =   0.000     Re =     0.060 e 6     Ncrit =   9.000
  
   alpha    CL        CD       CDp       CM     Top_Xtr  Bot_Xtr
  ------ -------- --------- --------- -------- -------- --------
  -1.000   0.0034   0.02071   0.01175  -0.0103   1.0000   0.9917
  -2.000  -0.3176   0.02123   0.01286   0.0303   1.0000   0.8939
  -3.000  -0.4633   0.01980   0.01165   0.0300   1.0000   0.7617
  -4.000  -0.5428   0.02001   0.01148   0.0185   1.0000   0.6127
  -5.000  -0.6175   0.02158   0.01233   0.0085   1.0000   0.4438
  -6.000  -0.6897   0.02493   0.01481   0.0002   1.0000   0.2858
  -7.000  -0.7699   0.03005   0.01949  -0.0057   1.0000   0.1961
  -8.000  -0.8469   0.03734   0.02735  -0.0112   1.0000   0.1524
  -9.000  -0.9004   0.04790   0.03902  -0.0176   1.0000   0.1317
 -10.000  -0.8598   0.06638   0.05917  -0.0250   1.0000   0.1293

.OPERva   c>  
 XFOIL   c>  